
This summary file was generated by TurbSim (v1.06.00, 21-Sep-2012) on 28-Nov-2019 at 15:12:50.


Runtime Options:

   2318573  Random seed #1
    RANLUX  Type of random number generator
         F  Output binary HH turbulence parameters?
         F  Output formatted turbulence parameters?
         F  Output AeroDyn HH files?
         F  Output AeroDyn FF files?
         T  Output BLADED FF files?
         T  Output tower data?
         F  Output formatted FF files?
         F  Output coherent turbulence time step file?
         T  Clockwise rotation when looking downwind?
 0 -  NONE  IEC turbulence models scaled to exact specified standard deviation


Turbine/Model Specifications:

        13  Vertical grid-point matrix dimension
        13  Horizontal grid-point matrix dimension
     0.250  Time step [seconds]
   400.000  Analysis time [seconds]
   200.000  Usable output time [seconds]
   149.168  Hub height [m]
   250.000  Grid height [m]
   250.000  Grid width [m]
     0.000  Vertical flow angle [degrees]
     0.000  Horizontal flow angle [degrees]


Meteorological Boundary Conditions:

    IECKAI  IEC Kaimal spectral model
         1  IEC standard: IEC 61400-1 Ed. 3: 2005
    18.340  Percent turbulence intensity, IEC 61400-1 Ed. 3: 2005
       NTM  IEC Normal Turbulence Model
       N/A  IEC Extreme Turbulence Model (ETM) "c" parameter [m/s]
       IEC  Wind profile type
   149.168  Reference height [m]
    10.000  Reference wind speed [m/s]
       N/A  Jet height [m]
     0.200  Power law exponent
     0.030  Surface roughness length [m]


You have requested that the following file(s) be generated:

   URef_turbulence_10.wnd (AeroDyn/BLADED full-field wnd file)
   URef_turbulence_10.twr (Binary tower twr file)


Turbulence Simulation Scaling Parameter Summary:

   Turbulence model used                            =  IEC Kaimal
   Turbulence characteristic                        =  User-specified
   IEC standard                                     =  IEC 61400-1 Ed. 3: 2005
   Mean wind speed at hub height                    =   10.000 m/s
   Characteristic value of standard deviation       =    1.834 m/s
   Turbulence scale                                 =   42.000 m
   u-component integral scale                       =  340.200 m
   Coherency scale                                  =  340.200 m
   Characteristic value of hub turbulence intensity =   18.340%
   Gradient Richardson number                       =    0.000

   Wind profile type                                =  Power law on rotor disk, logarithmic elsewhere
   Power law exponent                               =    0.200
   Mean shear across rotor disk                     =    0.017 (m/s)/m
   Assumed rotor diameter                           =  250.000 m
   Surface roughness length                         =    0.030 m

   Number of time steps in the FFT                  =     1600
   Number of time steps output                      =      900


Mean Flow Angles:

   Vertical   =   0.0 degrees
   Horizontal =   0.0 degrees

Mean Wind Speed Profile:

   Height    Wind Speed   Horizontal Angle  U-comp (X)   V-comp (Y)   W-comp (Z)
     (m)        (m/s)         (degrees)       (m/s)        (m/s)        (m/s)   
   ------    ----------   ----------------  ----------   ----------   ----------
    274.2       11.29            0.00         11.29         0.00         0.00
    253.3       11.12            0.00         11.12         0.00         0.00
    232.5       10.93            0.00         10.93         0.00         0.00
    211.7       10.72            0.00         10.72         0.00         0.00
    190.8       10.51            0.00         10.51         0.00         0.00
    170.0       10.26            0.00         10.26         0.00         0.00
    149.2       10.00            0.00         10.00         0.00         0.00
    128.3        9.70            0.00          9.70         0.00         0.00
    107.5        9.37            0.00          9.37         0.00         0.00
     86.7        8.97            0.00          8.97         0.00         0.00
     65.8        8.49            0.00          8.49         0.00         0.00
     45.0        7.87            0.00          7.87         0.00         0.00
     24.2        6.95            0.00          6.95         0.00         0.00
      3.3        5.53            0.00          5.53         0.00         0.00


Harvested Random Seeds after Generation of the Random Numbers:

      3791000 K1
            0 K2


Hub-Height Simulated Turbulence Statistical Summary:

   Type of Wind        Min (m/s)   Mean (m/s)    Max (m/s)  Sigma (m/s)       TI (%)
   ----------------    ---------   ----------    ---------  -----------       ------
   Longitudinal (u)         6.02        10.00        14.50        1.492       14.920
   Lateral (v)             -3.77         0.00         4.75        1.398       13.983
   Vertical (w)            -2.74         0.00         2.63        0.866        8.658
   U component              6.02        10.00        14.50        1.492       14.920
   V component             -3.77         0.00         4.75        1.398       13.983
   W component             -2.74         0.00         2.63        0.866        8.658
   Horizontal (U&V)         6.02        10.10        14.50        1.486       14.718
   Total                    6.07        10.14        14.57        1.481       14.614

                       Min Reynolds     Mean Reynolds    Max Reynolds    Correlation
   Product             Stress (m/s)^2   Stress (m/s)^2   Stress (m/s)^2  Coefficient
   ----------------    --------------   --------------   --------------  -----------
   u'w'                    -11.285            -0.174             6.280        -0.135
   u'v'                     -9.626             0.421            13.180         0.202
   v'w'                     -5.802             0.110             6.578         0.091


   Friction Velocity (Ustar)  =      0.417 m/s
   Maximum Instantaneous TKE  =     13.942 (m/s)^2
   Maximum Instantaneous CTKE =      6.690 (m/s)^2


Grid Point Variance Summary:

   Y-coord -125.00 -104.17  -83.33  -62.50  -41.67  -20.83    0.00   20.83   41.67   62.50   83.33  104.17  125.00

   Height   Standard deviation at grid points for the u component:
   274.17    1.691   1.644   1.420   1.506   1.534   1.586   1.679   1.687   1.726   1.665   1.594   1.459   1.704
   253.33    1.539   1.599   1.416   1.436   1.396   1.490   1.479   1.563   1.322   1.701   1.805   1.599   1.843
   232.50    1.476   1.430   1.304   1.373   1.418   1.595   1.495   1.367   1.323   1.477   1.556   1.776   1.823
   211.67    1.604   1.657   1.355   1.587   1.586   1.647   1.630   1.301   1.238   1.449   1.600   1.794   1.803
   190.83    1.862   1.803   1.539   1.605   1.564   1.540   1.486   1.425   1.228   1.410   1.643   1.732   1.713
   170.00    1.940   1.793   1.642   1.570   1.508   1.542   1.395   1.469   1.334   1.551   1.746   1.710   1.507
   149.17    1.859   1.866   1.741   1.585   1.483   1.558   1.492   1.408   1.321   1.480   1.810   1.487   1.717
   128.33    1.887   2.049   1.599   1.746   1.644   1.703   1.468   1.379   1.516   1.438   1.595   1.727   1.786
   107.50    1.883   1.971   1.785   1.720   1.683   1.691   1.559   1.567   1.388   1.625   1.852   1.623   1.675
    86.67    2.019   1.782   1.824   1.724   1.663   1.508   1.534   1.459   1.732   1.544   1.801   1.532   1.761
    65.83    1.834   1.848   1.589   1.611   1.632   1.605   1.587   1.674   1.752   1.671   1.840   1.650   1.513
    45.00    1.822   1.817   1.565   1.779   1.657   1.685   1.663   1.795   1.956   1.718   1.752   1.689   1.857
    24.17    1.676   1.640   1.674   1.660   1.785   1.956   1.732   1.862   1.871   1.626   1.833   1.562   1.725

   Height   Standard deviation at grid points for the v component:
   274.17    1.398   1.398   1.398   1.398   1.398   1.398   1.398   1.398   1.398   1.398   1.398   1.398   1.398
   253.33    1.398   1.398   1.398   1.398   1.398   1.398   1.398   1.398   1.398   1.398   1.398   1.398   1.398
   232.50    1.398   1.398   1.398   1.398   1.398   1.398   1.398   1.398   1.398   1.398   1.398   1.398   1.398
   211.67    1.398   1.398   1.398   1.398   1.398   1.398   1.398   1.398   1.398   1.398   1.398   1.398   1.398
   190.83    1.398   1.398   1.398   1.398   1.398   1.398   1.398   1.398   1.398   1.398   1.398   1.398   1.398
   170.00    1.398   1.398   1.398   1.398   1.398   1.398   1.398   1.398   1.398   1.398   1.398   1.398   1.398
   149.17    1.398   1.398   1.398   1.398   1.398   1.398   1.398   1.398   1.398   1.398   1.398   1.398   1.398
   128.33    1.398   1.398   1.398   1.398   1.398   1.398   1.398   1.398   1.398   1.398   1.398   1.398   1.398
   107.50    1.398   1.398   1.398   1.398   1.398   1.398   1.398   1.398   1.398   1.398   1.398   1.398   1.398
    86.67    1.398   1.398   1.398   1.398   1.398   1.398   1.398   1.398   1.398   1.398   1.398   1.398   1.398
    65.83    1.398   1.398   1.398   1.398   1.398   1.398   1.398   1.398   1.398   1.398   1.398   1.398   1.398
    45.00    1.398   1.398   1.398   1.398   1.398   1.398   1.398   1.398   1.398   1.398   1.398   1.398   1.398
    24.17    1.398   1.398   1.398   1.398   1.398   1.398   1.398   1.398   1.398   1.398   1.398   1.398   1.398

   Height   Standard deviation at grid points for the w component:
   274.17    0.866   0.866   0.866   0.866   0.866   0.866   0.866   0.866   0.866   0.866   0.866   0.866   0.866
   253.33    0.866   0.866   0.866   0.866   0.866   0.866   0.866   0.866   0.866   0.866   0.866   0.866   0.866
   232.50    0.866   0.866   0.866   0.866   0.866   0.866   0.866   0.866   0.866   0.866   0.866   0.866   0.866
   211.67    0.866   0.866   0.866   0.866   0.866   0.866   0.866   0.866   0.866   0.866   0.866   0.866   0.866
   190.83    0.866   0.866   0.866   0.866   0.866   0.866   0.866   0.866   0.866   0.866   0.866   0.866   0.866
   170.00    0.866   0.866   0.866   0.866   0.866   0.866   0.866   0.866   0.866   0.866   0.866   0.866   0.866
   149.17    0.866   0.866   0.866   0.866   0.866   0.866   0.866   0.866   0.866   0.866   0.866   0.866   0.866
   128.33    0.866   0.866   0.866   0.866   0.866   0.866   0.866   0.866   0.866   0.866   0.866   0.866   0.866
   107.50    0.866   0.866   0.866   0.866   0.866   0.866   0.866   0.866   0.866   0.866   0.866   0.866   0.866
    86.67    0.866   0.866   0.866   0.866   0.866   0.866   0.866   0.866   0.866   0.866   0.866   0.866   0.866
    65.83    0.866   0.866   0.866   0.866   0.866   0.866   0.866   0.866   0.866   0.866   0.866   0.866   0.866
    45.00    0.866   0.866   0.866   0.866   0.866   0.866   0.866   0.866   0.866   0.866   0.866   0.866   0.866
    24.17    0.866   0.866   0.866   0.866   0.866   0.866   0.866   0.866   0.866   0.866   0.866   0.866   0.866

   Mean standard deviation across all grid points:
      u component:    1.630 m/s
      v component:    1.398 m/s
      w component:    0.866 m/s


U-component (X) statistics from the hub grid point:

   Mean =  10.0000 m/s
   TI   =  14.9199 %


Normalizing Parameters for Binary Data (approximate statistics):

   UBar  =  10.0000 m/s
   TI(u) =  14.9199 %
   TI(v) =  13.9834 %
   TI(w) =   8.6581 %

   Height Offset =   0.0000 m
   Grid Base     =  24.1680 m

Nyquist frequency of turbulent wind field =         2.000 Hz


Processing complete.  0.45312 CPU seconds used.
