
This summary file was generated by TurbSim (v1.06.00, 21-Sep-2012) on 28-Nov-2019 at 15:12:55.


Runtime Options:

   2318573  Random seed #1
    RANLUX  Type of random number generator
         F  Output binary HH turbulence parameters?
         F  Output formatted turbulence parameters?
         F  Output AeroDyn HH files?
         F  Output AeroDyn FF files?
         T  Output BLADED FF files?
         T  Output tower data?
         F  Output formatted FF files?
         F  Output coherent turbulence time step file?
         T  Clockwise rotation when looking downwind?
 0 -  NONE  IEC turbulence models scaled to exact specified standard deviation


Turbine/Model Specifications:

        13  Vertical grid-point matrix dimension
        13  Horizontal grid-point matrix dimension
     0.250  Time step [seconds]
   400.000  Analysis time [seconds]
   200.000  Usable output time [seconds]
   149.168  Hub height [m]
   250.000  Grid height [m]
   250.000  Grid width [m]
     0.000  Vertical flow angle [degrees]
     0.000  Horizontal flow angle [degrees]


Meteorological Boundary Conditions:

    IECKAI  IEC Kaimal spectral model
         1  IEC standard: IEC 61400-1 Ed. 3: 2005
    14.420  Percent turbulence intensity, IEC 61400-1 Ed. 3: 2005
       NTM  IEC Normal Turbulence Model
       N/A  IEC Extreme Turbulence Model (ETM) "c" parameter [m/s]
       IEC  Wind profile type
   149.168  Reference height [m]
    20.000  Reference wind speed [m/s]
       N/A  Jet height [m]
     0.200  Power law exponent
     0.030  Surface roughness length [m]


You have requested that the following file(s) be generated:

   URef_turbulence_20.wnd (AeroDyn/BLADED full-field wnd file)
   URef_turbulence_20.twr (Binary tower twr file)


Turbulence Simulation Scaling Parameter Summary:

   Turbulence model used                            =  IEC Kaimal
   Turbulence characteristic                        =  User-specified
   IEC standard                                     =  IEC 61400-1 Ed. 3: 2005
   Mean wind speed at hub height                    =   20.000 m/s
   Characteristic value of standard deviation       =    2.884 m/s
   Turbulence scale                                 =   42.000 m
   u-component integral scale                       =  340.200 m
   Coherency scale                                  =  340.200 m
   Characteristic value of hub turbulence intensity =   14.420%
   Gradient Richardson number                       =    0.000

   Wind profile type                                =  Power law on rotor disk, logarithmic elsewhere
   Power law exponent                               =    0.200
   Mean shear across rotor disk                     =    0.035 (m/s)/m
   Assumed rotor diameter                           =  250.000 m
   Surface roughness length                         =    0.030 m

   Number of time steps in the FFT                  =     1600
   Number of time steps output                      =      850


Mean Flow Angles:

   Vertical   =   0.0 degrees
   Horizontal =   0.0 degrees

Mean Wind Speed Profile:

   Height    Wind Speed   Horizontal Angle  U-comp (X)   V-comp (Y)   W-comp (Z)
     (m)        (m/s)         (degrees)       (m/s)        (m/s)        (m/s)   
   ------    ----------   ----------------  ----------   ----------   ----------
    274.2       22.59            0.00         22.59         0.00         0.00
    253.3       22.23            0.00         22.23         0.00         0.00
    232.5       21.86            0.00         21.86         0.00         0.00
    211.7       21.45            0.00         21.45         0.00         0.00
    190.8       21.01            0.00         21.01         0.00         0.00
    170.0       20.53            0.00         20.53         0.00         0.00
    149.2       20.00            0.00         20.00         0.00         0.00
    128.3       19.41            0.00         19.41         0.00         0.00
    107.5       18.73            0.00         18.73         0.00         0.00
     86.7       17.94            0.00         17.94         0.00         0.00
     65.8       16.98            0.00         16.98         0.00         0.00
     45.0       15.74            0.00         15.74         0.00         0.00
     24.2       13.90            0.00         13.90         0.00         0.00
      3.3       11.07            0.00         11.07         0.00         0.00


Harvested Random Seeds after Generation of the Random Numbers:

      3791000 K1
            0 K2


Hub-Height Simulated Turbulence Statistical Summary:

   Type of Wind        Min (m/s)   Mean (m/s)    Max (m/s)  Sigma (m/s)       TI (%)
   ----------------    ---------   ----------    ---------  -----------       ------
   Longitudinal (u)        12.60        20.00        27.45        2.556       12.780
   Lateral (v)             -6.26         0.00         7.80        2.204       11.022
   Vertical (w)            -4.37         0.00         4.02        1.326        6.629
   U component             12.60        20.00        27.45        2.556       12.780
   V component             -6.26         0.00         7.80        2.204       11.022
   W component             -4.37         0.00         4.02        1.326        6.629
   Horizontal (U&V)        12.73        20.12        27.51        2.545       12.649
   Total                   12.90        20.17        27.54        2.539       12.592

                       Min Reynolds     Mean Reynolds    Max Reynolds    Correlation
   Product             Stress (m/s)^2   Stress (m/s)^2   Stress (m/s)^2  Coefficient
   ----------------    --------------   --------------   --------------  -----------
   u'w'                    -30.222            -0.464            17.773        -0.137
   u'v'                    -32.265             0.678            32.227         0.120
   v'w'                    -13.106             0.202            16.240         0.069


   Friction Velocity (Ustar)  =      0.682 m/s
   Maximum Instantaneous TKE  =     40.464 (m/s)^2
   Maximum Instantaneous CTKE =     17.845 (m/s)^2


Grid Point Variance Summary:

   Y-coord -125.00 -104.17  -83.33  -62.50  -41.67  -20.83    0.00   20.83   41.67   62.50   83.33  104.17  125.00

   Height   Standard deviation at grid points for the u component:
   274.17    2.813   2.698   2.485   2.570   2.531   2.538   2.611   2.696   2.719   2.802   2.698   2.448   2.744
   253.33    2.682   2.713   2.448   2.392   2.351   2.458   2.419   2.608   2.293   2.717   2.851   2.592   2.877
   232.50    2.657   2.561   2.405   2.427   2.435   2.653   2.479   2.370   2.400   2.500   2.581   2.785   2.906
   211.67    2.688   2.769   2.466   2.708   2.620   2.630   2.709   2.351   2.149   2.533   2.726   2.906   2.859
   190.83    3.014   2.975   2.662   2.665   2.618   2.573   2.517   2.486   2.200   2.452   2.782   2.788   2.772
   170.00    3.025   2.897   2.822   2.689   2.583   2.629   2.386   2.471   2.372   2.629   2.783   2.752   2.497
   149.17    2.984   2.992   2.917   2.676   2.617   2.640   2.556   2.437   2.365   2.412   2.863   2.438   2.700
   128.33    3.047   3.229   2.738   2.867   2.753   2.811   2.553   2.518   2.602   2.485   2.627   2.786   2.822
   107.50    2.946   3.021   2.858   2.746   2.734   2.819   2.727   2.741   2.576   2.789   3.000   2.650   2.659
    86.67    3.079   2.793   2.885   2.741   2.683   2.635   2.740   2.589   2.915   2.636   2.868   2.584   2.729
    65.83    2.887   2.935   2.615   2.611   2.611   2.676   2.657   2.764   2.844   2.724   2.893   2.603   2.470
    45.00    2.886   2.874   2.580   2.751   2.630   2.609   2.713   2.829   2.962   2.753   2.717   2.730   2.958
    24.17    2.724   2.692   2.722   2.682   2.691   2.988   2.764   2.871   2.828   2.527   2.879   2.539   2.733

   Height   Standard deviation at grid points for the v component:
   274.17    2.204   2.204   2.204   2.204   2.204   2.204   2.204   2.204   2.204   2.204   2.204   2.204   2.204
   253.33    2.204   2.204   2.204   2.204   2.204   2.204   2.204   2.204   2.204   2.204   2.204   2.204   2.204
   232.50    2.204   2.204   2.204   2.204   2.204   2.204   2.204   2.204   2.204   2.204   2.204   2.204   2.204
   211.67    2.204   2.204   2.204   2.204   2.204   2.204   2.204   2.204   2.204   2.204   2.204   2.204   2.204
   190.83    2.204   2.204   2.204   2.204   2.204   2.204   2.204   2.204   2.204   2.204   2.204   2.204   2.204
   170.00    2.204   2.204   2.204   2.204   2.204   2.204   2.204   2.204   2.204   2.204   2.204   2.204   2.204
   149.17    2.204   2.204   2.204   2.204   2.204   2.204   2.204   2.204   2.204   2.204   2.204   2.204   2.204
   128.33    2.204   2.204   2.204   2.204   2.204   2.204   2.204   2.204   2.204   2.204   2.204   2.204   2.204
   107.50    2.204   2.204   2.204   2.204   2.204   2.204   2.204   2.204   2.204   2.204   2.204   2.204   2.204
    86.67    2.204   2.204   2.204   2.204   2.204   2.204   2.204   2.204   2.204   2.204   2.204   2.204   2.204
    65.83    2.204   2.204   2.204   2.204   2.204   2.204   2.204   2.204   2.204   2.204   2.204   2.204   2.204
    45.00    2.204   2.204   2.204   2.204   2.204   2.204   2.204   2.204   2.204   2.204   2.204   2.204   2.204
    24.17    2.204   2.204   2.204   2.204   2.204   2.204   2.204   2.204   2.204   2.204   2.204   2.204   2.204

   Height   Standard deviation at grid points for the w component:
   274.17    1.326   1.326   1.326   1.326   1.326   1.326   1.326   1.326   1.326   1.326   1.326   1.326   1.326
   253.33    1.326   1.326   1.326   1.326   1.326   1.326   1.326   1.326   1.326   1.326   1.326   1.326   1.326
   232.50    1.326   1.326   1.326   1.326   1.326   1.326   1.326   1.326   1.326   1.326   1.326   1.326   1.326
   211.67    1.326   1.326   1.326   1.326   1.326   1.326   1.326   1.326   1.326   1.326   1.326   1.326   1.326
   190.83    1.326   1.326   1.326   1.326   1.326   1.326   1.326   1.326   1.326   1.326   1.326   1.326   1.326
   170.00    1.326   1.326   1.326   1.326   1.326   1.326   1.326   1.326   1.326   1.326   1.326   1.326   1.326
   149.17    1.326   1.326   1.326   1.326   1.326   1.326   1.326   1.326   1.326   1.326   1.326   1.326   1.326
   128.33    1.326   1.326   1.326   1.326   1.326   1.326   1.326   1.326   1.326   1.326   1.326   1.326   1.326
   107.50    1.326   1.326   1.326   1.326   1.326   1.326   1.326   1.326   1.326   1.326   1.326   1.326   1.326
    86.67    1.326   1.326   1.326   1.326   1.326   1.326   1.326   1.326   1.326   1.326   1.326   1.326   1.326
    65.83    1.326   1.326   1.326   1.326   1.326   1.326   1.326   1.326   1.326   1.326   1.326   1.326   1.326
    45.00    1.326   1.326   1.326   1.326   1.326   1.326   1.326   1.326   1.326   1.326   1.326   1.326   1.326
    24.17    1.326   1.326   1.326   1.326   1.326   1.326   1.326   1.326   1.326   1.326   1.326   1.326   1.326

   Mean standard deviation across all grid points:
      u component:    2.684 m/s
      v component:    2.204 m/s
      w component:    1.326 m/s


U-component (X) statistics from the hub grid point:

   Mean =  20.0000 m/s
   TI   =  12.7803 %


Normalizing Parameters for Binary Data (approximate statistics):

   UBar  =  20.0000 m/s
   TI(u) =  12.7803 %
   TI(v) =  11.0220 %
   TI(w) =   6.6294 %

   Height Offset =   0.0000 m
   Grid Base     =  24.1680 m

Nyquist frequency of turbulent wind field =         2.000 Hz


Processing complete.  0.54688 CPU seconds used.
