
This summary file was generated by TurbSim (v1.06.00, 21-Sep-2012) on 26-Nov-2019 at 14:58:36.


Runtime Options:

   2318573  Random seed #1
    RANLUX  Type of random number generator
         F  Output binary HH turbulence parameters?
         F  Output formatted turbulence parameters?
         F  Output AeroDyn HH files?
         F  Output AeroDyn FF files?
         T  Output BLADED FF files?
         T  Output tower data?
         F  Output formatted FF files?
         F  Output coherent turbulence time step file?
         T  Clockwise rotation when looking downwind?
 0 -  NONE  IEC turbulence models scaled to exact specified standard deviation


Turbine/Model Specifications:

        13  Vertical grid-point matrix dimension
        13  Horizontal grid-point matrix dimension
     0.250  Time step [seconds]
   400.000  Analysis time [seconds]
   200.000  Usable output time [seconds]
   149.168  Hub height [m]
   250.000  Grid height [m]
   250.000  Grid width [m]
     0.000  Vertical flow angle [degrees]
     0.000  Horizontal flow angle [degrees]


Meteorological Boundary Conditions:

    IECKAI  IEC Kaimal spectral model
         1  IEC standard: IEC 61400-1 Ed. 3: 2005
    19.211  Percent turbulence intensity, IEC 61400-1 Ed. 3: 2005
       NTM  IEC Normal Turbulence Model
       N/A  IEC Extreme Turbulence Model (ETM) "c" parameter [m/s]
       IEC  Wind profile type
   149.168  Reference height [m]
     9.000  Reference wind speed [m/s]
       N/A  Jet height [m]
     0.200  Power law exponent
     0.030  Surface roughness length [m]


You have requested that the following file(s) be generated:

   URef_09.wnd (AeroDyn/BLADED full-field wnd file)
   URef_09.twr (Binary tower twr file)


Turbulence Simulation Scaling Parameter Summary:

   Turbulence model used                            =  IEC Kaimal
   Turbulence characteristic                        =  User-specified
   IEC standard                                     =  IEC 61400-1 Ed. 3: 2005
   Mean wind speed at hub height                    =    9.000 m/s
   Characteristic value of standard deviation       =    1.729 m/s
   Turbulence scale                                 =   42.000 m
   u-component integral scale                       =  340.200 m
   Coherency scale                                  =  340.200 m
   Characteristic value of hub turbulence intensity =   19.211%
   Gradient Richardson number                       =    0.000

   Wind profile type                                =  Power law on rotor disk, logarithmic elsewhere
   Power law exponent                               =    0.200
   Mean shear across rotor disk                     =    0.016 (m/s)/m
   Assumed rotor diameter                           =  250.000 m
   Surface roughness length                         =    0.030 m

   Number of time steps in the FFT                  =     1600
   Number of time steps output                      =      912


Mean Flow Angles:

   Vertical   =   0.0 degrees
   Horizontal =   0.0 degrees

Mean Wind Speed Profile:

   Height    Wind Speed   Horizontal Angle  U-comp (X)   V-comp (Y)   W-comp (Z)
     (m)        (m/s)         (degrees)       (m/s)        (m/s)        (m/s)   
   ------    ----------   ----------------  ----------   ----------   ----------
    274.2       10.17            0.00         10.17         0.00         0.00
    253.3       10.01            0.00         10.01         0.00         0.00
    232.5        9.84            0.00          9.84         0.00         0.00
    211.7        9.65            0.00          9.65         0.00         0.00
    190.8        9.45            0.00          9.45         0.00         0.00
    170.0        9.24            0.00          9.24         0.00         0.00
    149.2        9.00            0.00          9.00         0.00         0.00
    128.3        8.73            0.00          8.73         0.00         0.00
    107.5        8.43            0.00          8.43         0.00         0.00
     86.7        8.07            0.00          8.07         0.00         0.00
     65.8        7.64            0.00          7.64         0.00         0.00
     45.0        7.08            0.00          7.08         0.00         0.00
     24.2        6.25            0.00          6.25         0.00         0.00
      3.3        4.98            0.00          4.98         0.00         0.00


Harvested Random Seeds after Generation of the Random Numbers:

      3791000 K1
            0 K2


Hub-Height Simulated Turbulence Statistical Summary:

   Type of Wind        Min (m/s)   Mean (m/s)    Max (m/s)  Sigma (m/s)       TI (%)
   ----------------    ---------   ----------    ---------  -----------       ------
   Longitudinal (u)         5.32         9.00        13.14        1.383       15.369
   Lateral (v)             -3.52         0.00         4.44        1.316       14.622
   Vertical (w)            -2.59         0.00         2.48        0.818        9.093
   U component              5.32         9.00        13.14        1.383       15.369
   V component             -3.52         0.00         4.44        1.316       14.622
   W component             -2.59         0.00         2.48        0.818        9.093
   Horizontal (U&V)         5.32         9.10        13.14        1.378       15.145
   Total                    5.37         9.13        13.21        1.373       15.030

                       Min Reynolds     Mean Reynolds    Max Reynolds    Correlation
   Product             Stress (m/s)^2   Stress (m/s)^2   Stress (m/s)^2  Coefficient
   ----------------    --------------   --------------   --------------  -----------
   u'w'                     -9.705            -0.152             5.302        -0.134
   u'v'                     -7.984             0.385            11.652         0.212
   v'w'                     -5.220             0.100             5.810         0.093


   Friction Velocity (Ustar)  =      0.390 m/s
   Maximum Instantaneous TKE  =     12.001 (m/s)^2
   Maximum Instantaneous CTKE =      5.908 (m/s)^2


Grid Point Variance Summary:

   Y-coord -125.00 -104.17  -83.33  -62.50  -41.67  -20.83    0.00   20.83   41.67   62.50   83.33  104.17  125.00

   Height   Standard deviation at grid points for the u component:
   274.17    1.585   1.541   1.317   1.401   1.439   1.494   1.591   1.586   1.629   1.552   1.480   1.362   1.592
   253.33    1.426   1.493   1.315   1.340   1.305   1.399   1.389   1.458   1.229   1.602   1.695   1.499   1.732
   232.50    1.357   1.316   1.200   1.278   1.323   1.495   1.407   1.275   1.219   1.377   1.451   1.674   1.710
   211.67    1.494   1.539   1.244   1.475   1.489   1.557   1.532   1.209   1.152   1.335   1.484   1.678   1.695
   190.83    1.744   1.679   1.424   1.500   1.466   1.440   1.384   1.321   1.139   1.302   1.523   1.623   1.605
   170.00    1.825   1.679   1.523   1.457   1.408   1.433   1.301   1.374   1.238   1.441   1.639   1.604   1.405
   149.17    1.744   1.749   1.618   1.478   1.372   1.452   1.383   1.312   1.225   1.390   1.701   1.391   1.615
   128.33    1.767   1.923   1.481   1.630   1.531   1.590   1.362   1.271   1.410   1.333   1.489   1.616   1.679
   107.50    1.770   1.864   1.674   1.612   1.572   1.576   1.439   1.446   1.267   1.506   1.731   1.512   1.573
    86.67    1.907   1.683   1.718   1.616   1.559   1.392   1.410   1.340   1.607   1.432   1.688   1.424   1.660
    65.83    1.725   1.741   1.487   1.507   1.531   1.497   1.475   1.564   1.636   1.563   1.728   1.549   1.412
    45.00    1.713   1.712   1.463   1.680   1.557   1.590   1.552   1.690   1.849   1.612   1.650   1.579   1.738
    24.17    1.568   1.534   1.570   1.559   1.693   1.852   1.628   1.762   1.773   1.530   1.723   1.458   1.616

   Height   Standard deviation at grid points for the v component:
   274.17    1.316   1.316   1.316   1.316   1.316   1.316   1.316   1.316   1.316   1.316   1.316   1.316   1.316
   253.33    1.316   1.316   1.316   1.316   1.316   1.316   1.316   1.316   1.316   1.316   1.316   1.316   1.316
   232.50    1.316   1.316   1.316   1.316   1.316   1.316   1.316   1.316   1.316   1.316   1.316   1.316   1.316
   211.67    1.316   1.316   1.316   1.316   1.316   1.316   1.316   1.316   1.316   1.316   1.316   1.316   1.316
   190.83    1.316   1.316   1.316   1.316   1.316   1.316   1.316   1.316   1.316   1.316   1.316   1.316   1.316
   170.00    1.316   1.316   1.316   1.316   1.316   1.316   1.316   1.316   1.316   1.316   1.316   1.316   1.316
   149.17    1.316   1.316   1.316   1.316   1.316   1.316   1.316   1.316   1.316   1.316   1.316   1.316   1.316
   128.33    1.316   1.316   1.316   1.316   1.316   1.316   1.316   1.316   1.316   1.316   1.316   1.316   1.316
   107.50    1.316   1.316   1.316   1.316   1.316   1.316   1.316   1.316   1.316   1.316   1.316   1.316   1.316
    86.67    1.316   1.316   1.316   1.316   1.316   1.316   1.316   1.316   1.316   1.316   1.316   1.316   1.316
    65.83    1.316   1.316   1.316   1.316   1.316   1.316   1.316   1.316   1.316   1.316   1.316   1.316   1.316
    45.00    1.316   1.316   1.316   1.316   1.316   1.316   1.316   1.316   1.316   1.316   1.316   1.316   1.316
    24.17    1.316   1.316   1.316   1.316   1.316   1.316   1.316   1.316   1.316   1.316   1.316   1.316   1.316

   Height   Standard deviation at grid points for the w component:
   274.17    0.818   0.818   0.818   0.818   0.818   0.818   0.818   0.818   0.818   0.818   0.818   0.818   0.818
   253.33    0.818   0.818   0.818   0.818   0.818   0.818   0.818   0.818   0.818   0.818   0.818   0.818   0.818
   232.50    0.818   0.818   0.818   0.818   0.818   0.818   0.818   0.818   0.818   0.818   0.818   0.818   0.818
   211.67    0.818   0.818   0.818   0.818   0.818   0.818   0.818   0.818   0.818   0.818   0.818   0.818   0.818
   190.83    0.818   0.818   0.818   0.818   0.818   0.818   0.818   0.818   0.818   0.818   0.818   0.818   0.818
   170.00    0.818   0.818   0.818   0.818   0.818   0.818   0.818   0.818   0.818   0.818   0.818   0.818   0.818
   149.17    0.818   0.818   0.818   0.818   0.818   0.818   0.818   0.818   0.818   0.818   0.818   0.818   0.818
   128.33    0.818   0.818   0.818   0.818   0.818   0.818   0.818   0.818   0.818   0.818   0.818   0.818   0.818
   107.50    0.818   0.818   0.818   0.818   0.818   0.818   0.818   0.818   0.818   0.818   0.818   0.818   0.818
    86.67    0.818   0.818   0.818   0.818   0.818   0.818   0.818   0.818   0.818   0.818   0.818   0.818   0.818
    65.83    0.818   0.818   0.818   0.818   0.818   0.818   0.818   0.818   0.818   0.818   0.818   0.818   0.818
    45.00    0.818   0.818   0.818   0.818   0.818   0.818   0.818   0.818   0.818   0.818   0.818   0.818   0.818
    24.17    0.818   0.818   0.818   0.818   0.818   0.818   0.818   0.818   0.818   0.818   0.818   0.818   0.818

   Mean standard deviation across all grid points:
      u component:    1.523 m/s
      v component:    1.316 m/s
      w component:    0.818 m/s


U-component (X) statistics from the hub grid point:

   Mean =   9.0000 m/s
   TI   =  15.3691 %


Normalizing Parameters for Binary Data (approximate statistics):

   UBar  =   9.0000 m/s
   TI(u) =  15.3691 %
   TI(v) =  14.6221 %
   TI(w) =   9.0935 %

   Height Offset =   0.0000 m
   Grid Base     =  24.1680 m

Nyquist frequency of turbulent wind field =         2.000 Hz


Processing complete.  0.60938 CPU seconds used.
