
This summary file was generated by TurbSim (v1.06.00, 21-Sep-2012) on 28-Nov-2019 at 15:12:48.


Runtime Options:

   2318573  Random seed #1
    RANLUX  Type of random number generator
         F  Output binary HH turbulence parameters?
         F  Output formatted turbulence parameters?
         F  Output AeroDyn HH files?
         F  Output AeroDyn FF files?
         T  Output BLADED FF files?
         T  Output tower data?
         F  Output formatted FF files?
         F  Output coherent turbulence time step file?
         T  Clockwise rotation when looking downwind?
 0 -  NONE  IEC turbulence models scaled to exact specified standard deviation


Turbine/Model Specifications:

        13  Vertical grid-point matrix dimension
        13  Horizontal grid-point matrix dimension
     0.250  Time step [seconds]
   400.000  Analysis time [seconds]
   200.000  Usable output time [seconds]
   149.168  Hub height [m]
   250.000  Grid height [m]
   250.000  Grid width [m]
     0.000  Vertical flow angle [degrees]
     0.000  Horizontal flow angle [degrees]


Meteorological Boundary Conditions:

    IECKAI  IEC Kaimal spectral model
         1  IEC standard: IEC 61400-1 Ed. 3: 2005
    23.567  Percent turbulence intensity, IEC 61400-1 Ed. 3: 2005
       NTM  IEC Normal Turbulence Model
       N/A  IEC Extreme Turbulence Model (ETM) "c" parameter [m/s]
       IEC  Wind profile type
   149.168  Reference height [m]
     6.000  Reference wind speed [m/s]
       N/A  Jet height [m]
     0.200  Power law exponent
     0.030  Surface roughness length [m]


You have requested that the following file(s) be generated:

   URef_turbulence_06.wnd (AeroDyn/BLADED full-field wnd file)
   URef_turbulence_06.twr (Binary tower twr file)


Turbulence Simulation Scaling Parameter Summary:

   Turbulence model used                            =  IEC Kaimal
   Turbulence characteristic                        =  User-specified
   IEC standard                                     =  IEC 61400-1 Ed. 3: 2005
   Mean wind speed at hub height                    =    6.000 m/s
   Characteristic value of standard deviation       =    1.414 m/s
   Turbulence scale                                 =   42.000 m
   u-component integral scale                       =  340.200 m
   Coherency scale                                  =  340.200 m
   Characteristic value of hub turbulence intensity =   23.567%
   Gradient Richardson number                       =    0.000

   Wind profile type                                =  Power law on rotor disk, logarithmic elsewhere
   Power law exponent                               =    0.200
   Mean shear across rotor disk                     =    0.010 (m/s)/m
   Assumed rotor diameter                           =  250.000 m
   Surface roughness length                         =    0.030 m

   Number of time steps in the FFT                  =     1600
   Number of time steps output                      =      967


Mean Flow Angles:

   Vertical   =   0.0 degrees
   Horizontal =   0.0 degrees

Mean Wind Speed Profile:

   Height    Wind Speed   Horizontal Angle  U-comp (X)   V-comp (Y)   W-comp (Z)
     (m)        (m/s)         (degrees)       (m/s)        (m/s)        (m/s)   
   ------    ----------   ----------------  ----------   ----------   ----------
    274.2        6.78            0.00          6.78         0.00         0.00
    253.3        6.67            0.00          6.67         0.00         0.00
    232.5        6.56            0.00          6.56         0.00         0.00
    211.7        6.43            0.00          6.43         0.00         0.00
    190.8        6.30            0.00          6.30         0.00         0.00
    170.0        6.16            0.00          6.16         0.00         0.00
    149.2        6.00            0.00          6.00         0.00         0.00
    128.3        5.82            0.00          5.82         0.00         0.00
    107.5        5.62            0.00          5.62         0.00         0.00
     86.7        5.38            0.00          5.38         0.00         0.00
     65.8        5.09            0.00          5.09         0.00         0.00
     45.0        4.72            0.00          4.72         0.00         0.00
     24.2        4.17            0.00          4.17         0.00         0.00
      3.3        3.32            0.00          3.32         0.00         0.00


Harvested Random Seeds after Generation of the Random Numbers:

      3791000 K1
            0 K2


Hub-Height Simulated Turbulence Statistical Summary:

   Type of Wind        Min (m/s)   Mean (m/s)    Max (m/s)  Sigma (m/s)       TI (%)
   ----------------    ---------   ----------    ---------  -----------       ------
   Longitudinal (u)         3.12         6.00         8.96        1.043       17.386
   Lateral (v)             -2.74         0.00         3.49        1.065       17.747
   Vertical (w)            -2.13         0.00         2.01        0.674       11.237
   U component              3.12         6.00         8.96        1.043       17.386
   V component             -2.74         0.00         3.49        1.065       17.747
   W component             -2.13         0.00         2.01        0.674       11.237
   Horizontal (U&V)         3.23         6.09         8.97        1.037       17.014
   Total                    3.29         6.13         9.05        1.032       16.827

                       Min Reynolds     Mean Reynolds    Max Reynolds    Correlation
   Product             Stress (m/s)^2   Stress (m/s)^2   Stress (m/s)^2  Coefficient
   ----------------    --------------   --------------   --------------  -----------
   u'w'                     -5.472            -0.097             2.711        -0.137
   u'v'                     -4.005             0.263             7.446         0.236
   v'w'                     -3.584             0.069             3.737         0.096


   Friction Velocity (Ustar)  =      0.311 m/s
   Maximum Instantaneous TKE  =      7.527 (m/s)^2
   Maximum Instantaneous CTKE =      3.758 (m/s)^2


Grid Point Variance Summary:

   Y-coord -125.00 -104.17  -83.33  -62.50  -41.67  -20.83    0.00   20.83   41.67   62.50   83.33  104.17  125.00

   Height   Standard deviation at grid points for the u component:
   274.17    1.292   1.242   1.027   1.100   1.169   1.231   1.327   1.286   1.341   1.226   1.133   1.075   1.239
   253.33    1.105   1.205   1.023   1.044   1.037   1.139   1.116   1.135   0.957   1.314   1.358   1.188   1.375
   232.50    1.008   0.988   0.912   1.020   1.046   1.200   1.155   1.014   0.926   1.082   1.140   1.366   1.351
   211.67    1.154   1.166   0.919   1.143   1.222   1.300   1.267   0.964   0.906   0.987   1.129   1.315   1.361
   190.83    1.379   1.283   1.073   1.188   1.191   1.148   1.081   1.014   0.892   0.970   1.147   1.276   1.267
   170.00    1.460   1.323   1.157   1.111   1.127   1.102   1.017   1.082   0.955   1.093   1.298   1.272   1.079
   149.17    1.387   1.384   1.235   1.151   1.050   1.136   1.043   1.023   0.948   1.106   1.359   1.083   1.283
   128.33    1.391   1.529   1.124   1.273   1.186   1.243   1.040   0.963   1.094   1.013   1.161   1.271   1.337
   107.50    1.412   1.538   1.330   1.269   1.224   1.216   1.071   1.073   0.905   1.144   1.348   1.157   1.251
    86.67    1.554   1.383   1.396   1.279   1.238   1.037   1.035   0.963   1.214   1.084   1.330   1.094   1.335
    65.83    1.388   1.421   1.176   1.179   1.218   1.172   1.123   1.229   1.262   1.220   1.373   1.222   1.089
    45.00    1.376   1.401   1.155   1.373   1.245   1.286   1.195   1.358   1.498   1.281   1.323   1.225   1.359
    24.17    1.237   1.213   1.260   1.254   1.404   1.529   1.302   1.451   1.459   1.215   1.375   1.125   1.263

   Height   Standard deviation at grid points for the v component:
   274.17    1.065   1.065   1.065   1.065   1.065   1.065   1.065   1.065   1.065   1.065   1.065   1.065   1.065
   253.33    1.065   1.065   1.065   1.065   1.065   1.065   1.065   1.065   1.065   1.065   1.065   1.065   1.065
   232.50    1.065   1.065   1.065   1.065   1.065   1.065   1.065   1.065   1.065   1.065   1.065   1.065   1.065
   211.67    1.065   1.065   1.065   1.065   1.065   1.065   1.065   1.065   1.065   1.065   1.065   1.065   1.065
   190.83    1.065   1.065   1.065   1.065   1.065   1.065   1.065   1.065   1.065   1.065   1.065   1.065   1.065
   170.00    1.065   1.065   1.065   1.065   1.065   1.065   1.065   1.065   1.065   1.065   1.065   1.065   1.065
   149.17    1.065   1.065   1.065   1.065   1.065   1.065   1.065   1.065   1.065   1.065   1.065   1.065   1.065
   128.33    1.065   1.065   1.065   1.065   1.065   1.065   1.065   1.065   1.065   1.065   1.065   1.065   1.065
   107.50    1.065   1.065   1.065   1.065   1.065   1.065   1.065   1.065   1.065   1.065   1.065   1.065   1.065
    86.67    1.065   1.065   1.065   1.065   1.065   1.065   1.065   1.065   1.065   1.065   1.065   1.065   1.065
    65.83    1.065   1.065   1.065   1.065   1.065   1.065   1.065   1.065   1.065   1.065   1.065   1.065   1.065
    45.00    1.065   1.065   1.065   1.065   1.065   1.065   1.065   1.065   1.065   1.065   1.065   1.065   1.065
    24.17    1.065   1.065   1.065   1.065   1.065   1.065   1.065   1.065   1.065   1.065   1.065   1.065   1.065

   Height   Standard deviation at grid points for the w component:
   274.17    0.674   0.674   0.674   0.674   0.674   0.674   0.674   0.674   0.674   0.674   0.674   0.674   0.674
   253.33    0.674   0.674   0.674   0.674   0.674   0.674   0.674   0.674   0.674   0.674   0.674   0.674   0.674
   232.50    0.674   0.674   0.674   0.674   0.674   0.674   0.674   0.674   0.674   0.674   0.674   0.674   0.674
   211.67    0.674   0.674   0.674   0.674   0.674   0.674   0.674   0.674   0.674   0.674   0.674   0.674   0.674
   190.83    0.674   0.674   0.674   0.674   0.674   0.674   0.674   0.674   0.674   0.674   0.674   0.674   0.674
   170.00    0.674   0.674   0.674   0.674   0.674   0.674   0.674   0.674   0.674   0.674   0.674   0.674   0.674
   149.17    0.674   0.674   0.674   0.674   0.674   0.674   0.674   0.674   0.674   0.674   0.674   0.674   0.674
   128.33    0.674   0.674   0.674   0.674   0.674   0.674   0.674   0.674   0.674   0.674   0.674   0.674   0.674
   107.50    0.674   0.674   0.674   0.674   0.674   0.674   0.674   0.674   0.674   0.674   0.674   0.674   0.674
    86.67    0.674   0.674   0.674   0.674   0.674   0.674   0.674   0.674   0.674   0.674   0.674   0.674   0.674
    65.83    0.674   0.674   0.674   0.674   0.674   0.674   0.674   0.674   0.674   0.674   0.674   0.674   0.674
    45.00    0.674   0.674   0.674   0.674   0.674   0.674   0.674   0.674   0.674   0.674   0.674   0.674   0.674
    24.17    0.674   0.674   0.674   0.674   0.674   0.674   0.674   0.674   0.674   0.674   0.674   0.674   0.674

   Mean standard deviation across all grid points:
      u component:    1.199 m/s
      v component:    1.065 m/s
      w component:    0.674 m/s


U-component (X) statistics from the hub grid point:

   Mean =   6.0000 m/s
   TI   =  17.3861 %


Normalizing Parameters for Binary Data (approximate statistics):

   UBar  =   6.0000 m/s
   TI(u) =  17.3861 %
   TI(v) =  17.7467 %
   TI(w) =  11.2367 %

   Height Offset =   0.0000 m
   Grid Base     =  24.1680 m

Nyquist frequency of turbulent wind field =         2.000 Hz


Processing complete.  0.4375 CPU seconds used.
