
This summary file was generated by TurbSim (v1.06.00, 21-Sep-2012) on 28-Nov-2019 at 15:12:56.


Runtime Options:

   2318573  Random seed #1
    RANLUX  Type of random number generator
         F  Output binary HH turbulence parameters?
         F  Output formatted turbulence parameters?
         F  Output AeroDyn HH files?
         F  Output AeroDyn FF files?
         T  Output BLADED FF files?
         T  Output tower data?
         F  Output formatted FF files?
         F  Output coherent turbulence time step file?
         T  Clockwise rotation when looking downwind?
 0 -  NONE  IEC turbulence models scaled to exact specified standard deviation


Turbine/Model Specifications:

        13  Vertical grid-point matrix dimension
        13  Horizontal grid-point matrix dimension
     0.250  Time step [seconds]
   400.000  Analysis time [seconds]
   200.000  Usable output time [seconds]
   149.168  Hub height [m]
   250.000  Grid height [m]
   250.000  Grid width [m]
     0.000  Vertical flow angle [degrees]
     0.000  Horizontal flow angle [degrees]


Meteorological Boundary Conditions:

    IECKAI  IEC Kaimal spectral model
         1  IEC standard: IEC 61400-1 Ed. 3: 2005
    14.064  Percent turbulence intensity, IEC 61400-1 Ed. 3: 2005
       NTM  IEC Normal Turbulence Model
       N/A  IEC Extreme Turbulence Model (ETM) "c" parameter [m/s]
       IEC  Wind profile type
   149.168  Reference height [m]
    22.000  Reference wind speed [m/s]
       N/A  Jet height [m]
     0.200  Power law exponent
     0.030  Surface roughness length [m]


You have requested that the following file(s) be generated:

   URef_turbulence_22.wnd (AeroDyn/BLADED full-field wnd file)
   URef_turbulence_22.twr (Binary tower twr file)


Turbulence Simulation Scaling Parameter Summary:

   Turbulence model used                            =  IEC Kaimal
   Turbulence characteristic                        =  User-specified
   IEC standard                                     =  IEC 61400-1 Ed. 3: 2005
   Mean wind speed at hub height                    =   22.000 m/s
   Characteristic value of standard deviation       =    3.094 m/s
   Turbulence scale                                 =   42.000 m
   u-component integral scale                       =  340.200 m
   Coherency scale                                  =  340.200 m
   Characteristic value of hub turbulence intensity =   14.064%
   Gradient Richardson number                       =    0.000

   Wind profile type                                =  Power law on rotor disk, logarithmic elsewhere
   Power law exponent                               =    0.200
   Mean shear across rotor disk                     =    0.038 (m/s)/m
   Assumed rotor diameter                           =  250.000 m
   Surface roughness length                         =    0.030 m

   Number of time steps in the FFT                  =     1600
   Number of time steps output                      =      846


Mean Flow Angles:

   Vertical   =   0.0 degrees
   Horizontal =   0.0 degrees

Mean Wind Speed Profile:

   Height    Wind Speed   Horizontal Angle  U-comp (X)   V-comp (Y)   W-comp (Z)
     (m)        (m/s)         (degrees)       (m/s)        (m/s)        (m/s)   
   ------    ----------   ----------------  ----------   ----------   ----------
    274.2       24.85            0.00         24.85         0.00         0.00
    253.3       24.46            0.00         24.46         0.00         0.00
    232.5       24.04            0.00         24.04         0.00         0.00
    211.7       23.59            0.00         23.59         0.00         0.00
    190.8       23.11            0.00         23.11         0.00         0.00
    170.0       22.58            0.00         22.58         0.00         0.00
    149.2       22.00            0.00         22.00         0.00         0.00
    128.3       21.35            0.00         21.35         0.00         0.00
    107.5       20.60            0.00         20.60         0.00         0.00
     86.7       19.74            0.00         19.74         0.00         0.00
     65.8       18.68            0.00         18.68         0.00         0.00
     45.0       17.31            0.00         17.31         0.00         0.00
     24.2       15.29            0.00         15.29         0.00         0.00
      3.3       12.18            0.00         12.18         0.00         0.00


Harvested Random Seeds after Generation of the Random Numbers:

      3791000 K1
            0 K2


Hub-Height Simulated Turbulence Statistical Summary:

   Type of Wind        Min (m/s)   Mean (m/s)    Max (m/s)  Sigma (m/s)       TI (%)
   ----------------    ---------   ----------    ---------  -----------       ------
   Longitudinal (u)        13.94        22.00        29.95        2.770       12.590
   Lateral (v)             -6.75         0.00         8.40        2.363       10.742
   Vertical (w)            -4.69         0.00         4.28        1.415        6.433
   U component             13.94        22.00        29.95        2.770       12.590
   V component             -6.75         0.00         8.40        2.363       10.742
   W component             -4.69         0.00         4.28        1.415        6.433
   Horizontal (U&V)        14.07        22.13        30.11        2.758       12.463
   Total                   14.25        22.17        30.11        2.752       12.410

                       Min Reynolds     Mean Reynolds    Max Reynolds    Correlation
   Product             Stress (m/s)^2   Stress (m/s)^2   Stress (m/s)^2  Coefficient
   ----------------    --------------   --------------   --------------  -----------
   u'w'                    -34.530            -0.532            20.312        -0.136
   u'v'                    -37.778             0.717            36.924         0.110
   v'w'                    -15.056             0.219            18.567         0.065


   Friction Velocity (Ustar)  =      0.729 m/s
   Maximum Instantaneous TKE  =     47.082 (m/s)^2
   Maximum Instantaneous CTKE =     20.828 (m/s)^2


Grid Point Variance Summary:

   Y-coord -125.00 -104.17  -83.33  -62.50  -41.67  -20.83    0.00   20.83   41.67   62.50   83.33  104.17  125.00

   Height   Standard deviation at grid points for the u component:
   274.17    3.041   2.912   2.700   2.783   2.735   2.734   2.807   2.899   2.922   3.025   2.915   2.648   2.945
   253.33    2.911   2.941   2.657   2.588   2.552   2.660   2.618   2.820   2.495   2.924   3.055   2.795   3.081
   232.50    2.891   2.786   2.631   2.650   2.650   2.876   2.692   2.583   2.618   2.707   2.784   2.988   3.120
   211.67    2.905   2.986   2.691   2.933   2.835   2.839   2.936   2.576   2.340   2.747   2.949   3.127   3.071
   190.83    3.240   3.202   2.888   2.881   2.839   2.788   2.731   2.704   2.408   2.658   3.006   2.999   2.986
   170.00    3.238   3.115   3.057   2.915   2.807   2.848   2.597   2.682   2.590   2.844   2.989   2.960   2.697
   149.17    3.205   3.211   3.145   2.896   2.845   2.860   2.770   2.653   2.583   2.609   3.072   2.632   2.897
   128.33    3.272   3.455   2.957   3.083   2.973   3.032   2.775   2.750   2.822   2.695   2.830   2.992   3.027
   107.50    3.149   3.231   3.070   2.945   2.939   3.044   2.957   2.971   2.808   3.017   3.222   2.849   2.853
    86.67    3.285   2.999   3.098   2.940   2.886   2.856   2.976   2.809   3.143   2.852   3.077   2.791   2.920
    65.83    3.095   3.153   2.819   2.807   2.804   2.886   2.865   2.981   3.057   2.934   3.099   2.790   2.657
    45.00    3.095   3.086   2.783   2.945   2.823   2.793   2.917   3.037   3.162   2.959   2.906   2.933   3.171
    24.17    2.930   2.901   2.933   2.887   2.876   3.193   2.970   3.077   3.023   2.707   3.083   2.730   2.928

   Height   Standard deviation at grid points for the v component:
   274.17    2.363   2.363   2.363   2.363   2.363   2.363   2.363   2.363   2.363   2.363   2.363   2.363   2.363
   253.33    2.363   2.363   2.363   2.363   2.363   2.363   2.363   2.363   2.363   2.363   2.363   2.363   2.363
   232.50    2.363   2.363   2.363   2.363   2.363   2.363   2.363   2.363   2.363   2.363   2.363   2.363   2.363
   211.67    2.363   2.363   2.363   2.363   2.363   2.363   2.363   2.363   2.363   2.363   2.363   2.363   2.363
   190.83    2.363   2.363   2.363   2.363   2.363   2.363   2.363   2.363   2.363   2.363   2.363   2.363   2.363
   170.00    2.363   2.363   2.363   2.363   2.363   2.363   2.363   2.363   2.363   2.363   2.363   2.363   2.363
   149.17    2.363   2.363   2.363   2.363   2.363   2.363   2.363   2.363   2.363   2.363   2.363   2.363   2.363
   128.33    2.363   2.363   2.363   2.363   2.363   2.363   2.363   2.363   2.363   2.363   2.363   2.363   2.363
   107.50    2.363   2.363   2.363   2.363   2.363   2.363   2.363   2.363   2.363   2.363   2.363   2.363   2.363
    86.67    2.363   2.363   2.363   2.363   2.363   2.363   2.363   2.363   2.363   2.363   2.363   2.363   2.363
    65.83    2.363   2.363   2.363   2.363   2.363   2.363   2.363   2.363   2.363   2.363   2.363   2.363   2.363
    45.00    2.363   2.363   2.363   2.363   2.363   2.363   2.363   2.363   2.363   2.363   2.363   2.363   2.363
    24.17    2.363   2.363   2.363   2.363   2.363   2.363   2.363   2.363   2.363   2.363   2.363   2.363   2.363

   Height   Standard deviation at grid points for the w component:
   274.17    1.415   1.415   1.415   1.415   1.415   1.415   1.415   1.415   1.415   1.415   1.415   1.415   1.415
   253.33    1.415   1.415   1.415   1.415   1.415   1.415   1.415   1.415   1.415   1.415   1.415   1.415   1.415
   232.50    1.415   1.415   1.415   1.415   1.415   1.415   1.415   1.415   1.415   1.415   1.415   1.415   1.415
   211.67    1.415   1.415   1.415   1.415   1.415   1.415   1.415   1.415   1.415   1.415   1.415   1.415   1.415
   190.83    1.415   1.415   1.415   1.415   1.415   1.415   1.415   1.415   1.415   1.415   1.415   1.415   1.415
   170.00    1.415   1.415   1.415   1.415   1.415   1.415   1.415   1.415   1.415   1.415   1.415   1.415   1.415
   149.17    1.415   1.415   1.415   1.415   1.415   1.415   1.415   1.415   1.415   1.415   1.415   1.415   1.415
   128.33    1.415   1.415   1.415   1.415   1.415   1.415   1.415   1.415   1.415   1.415   1.415   1.415   1.415
   107.50    1.415   1.415   1.415   1.415   1.415   1.415   1.415   1.415   1.415   1.415   1.415   1.415   1.415
    86.67    1.415   1.415   1.415   1.415   1.415   1.415   1.415   1.415   1.415   1.415   1.415   1.415   1.415
    65.83    1.415   1.415   1.415   1.415   1.415   1.415   1.415   1.415   1.415   1.415   1.415   1.415   1.415
    45.00    1.415   1.415   1.415   1.415   1.415   1.415   1.415   1.415   1.415   1.415   1.415   1.415   1.415
    24.17    1.415   1.415   1.415   1.415   1.415   1.415   1.415   1.415   1.415   1.415   1.415   1.415   1.415

   Mean standard deviation across all grid points:
      u component:    2.895 m/s
      v component:    2.363 m/s
      w component:    1.415 m/s


U-component (X) statistics from the hub grid point:

   Mean =  22.0000 m/s
   TI   =  12.5898 %


Normalizing Parameters for Binary Data (approximate statistics):

   UBar  =  22.0000 m/s
   TI(u) =  12.5898 %
   TI(v) =  10.7418 %
   TI(w) =   6.4333 %

   Height Offset =   0.0000 m
   Grid Base     =  24.1680 m

Nyquist frequency of turbulent wind field =         2.000 Hz


Processing complete.  0.51562 CPU seconds used.
