
This summary file was generated by TurbSim (v1.06.00, 21-Sep-2012) on 28-Nov-2019 at 15:12:51.


Runtime Options:

   2318573  Random seed #1
    RANLUX  Type of random number generator
         F  Output binary HH turbulence parameters?
         F  Output formatted turbulence parameters?
         F  Output AeroDyn HH files?
         F  Output AeroDyn FF files?
         T  Output BLADED FF files?
         T  Output tower data?
         F  Output formatted FF files?
         F  Output coherent turbulence time step file?
         T  Clockwise rotation when looking downwind?
 0 -  NONE  IEC turbulence models scaled to exact specified standard deviation


Turbine/Model Specifications:

        13  Vertical grid-point matrix dimension
        13  Horizontal grid-point matrix dimension
     0.250  Time step [seconds]
   400.000  Analysis time [seconds]
   200.000  Usable output time [seconds]
   149.168  Hub height [m]
   250.000  Grid height [m]
   250.000  Grid width [m]
     0.000  Vertical flow angle [degrees]
     0.000  Horizontal flow angle [degrees]


Meteorological Boundary Conditions:

    IECKAI  IEC Kaimal spectral model
         1  IEC standard: IEC 61400-1 Ed. 3: 2005
    17.033  Percent turbulence intensity, IEC 61400-1 Ed. 3: 2005
       NTM  IEC Normal Turbulence Model
       N/A  IEC Extreme Turbulence Model (ETM) "c" parameter [m/s]
       IEC  Wind profile type
   149.168  Reference height [m]
    12.000  Reference wind speed [m/s]
       N/A  Jet height [m]
     0.200  Power law exponent
     0.030  Surface roughness length [m]


You have requested that the following file(s) be generated:

   URef_turbulence_12.wnd (AeroDyn/BLADED full-field wnd file)
   URef_turbulence_12.twr (Binary tower twr file)


Turbulence Simulation Scaling Parameter Summary:

   Turbulence model used                            =  IEC Kaimal
   Turbulence characteristic                        =  User-specified
   IEC standard                                     =  IEC 61400-1 Ed. 3: 2005
   Mean wind speed at hub height                    =   12.000 m/s
   Characteristic value of standard deviation       =    2.044 m/s
   Turbulence scale                                 =   42.000 m
   u-component integral scale                       =  340.200 m
   Coherency scale                                  =  340.200 m
   Characteristic value of hub turbulence intensity =   17.033%
   Gradient Richardson number                       =    0.000

   Wind profile type                                =  Power law on rotor disk, logarithmic elsewhere
   Power law exponent                               =    0.200
   Mean shear across rotor disk                     =    0.021 (m/s)/m
   Assumed rotor diameter                           =  250.000 m
   Surface roughness length                         =    0.030 m

   Number of time steps in the FFT                  =     1600
   Number of time steps output                      =      884


Mean Flow Angles:

   Vertical   =   0.0 degrees
   Horizontal =   0.0 degrees

Mean Wind Speed Profile:

   Height    Wind Speed   Horizontal Angle  U-comp (X)   V-comp (Y)   W-comp (Z)
     (m)        (m/s)         (degrees)       (m/s)        (m/s)        (m/s)   
   ------    ----------   ----------------  ----------   ----------   ----------
    274.2       13.55            0.00         13.55         0.00         0.00
    253.3       13.34            0.00         13.34         0.00         0.00
    232.5       13.11            0.00         13.11         0.00         0.00
    211.7       12.87            0.00         12.87         0.00         0.00
    190.8       12.61            0.00         12.61         0.00         0.00
    170.0       12.32            0.00         12.32         0.00         0.00
    149.2       12.00            0.00         12.00         0.00         0.00
    128.3       11.64            0.00         11.64         0.00         0.00
    107.5       11.24            0.00         11.24         0.00         0.00
     86.7       10.77            0.00         10.77         0.00         0.00
     65.8       10.19            0.00         10.19         0.00         0.00
     45.0        9.44            0.00          9.44         0.00         0.00
     24.2        8.34            0.00          8.34         0.00         0.00
      3.3        6.64            0.00          6.64         0.00         0.00


Harvested Random Seeds after Generation of the Random Numbers:

      3791000 K1
            0 K2


Hub-Height Simulated Turbulence Statistical Summary:

   Type of Wind        Min (m/s)   Mean (m/s)    Max (m/s)  Sigma (m/s)       TI (%)
   ----------------    ---------   ----------    ---------  -----------       ------
   Longitudinal (u)         7.43        12.00        17.18        1.706       14.219
   Lateral (v)             -4.28         0.00         5.37        1.562       13.014
   Vertical (w)            -3.04         0.00         2.92        0.960        7.998
   U component              7.43        12.00        17.18        1.706       14.219
   V component             -4.28         0.00         5.37        1.562       13.014
   W component             -3.04         0.00         2.92        0.960        7.998
   Horizontal (U&V)         7.43        12.10        17.18        1.700       14.044
   Total                    7.48        12.14        17.25        1.695       13.958

                       Min Reynolds     Mean Reynolds    Max Reynolds    Correlation
   Product             Stress (m/s)^2   Stress (m/s)^2   Stress (m/s)^2  Coefficient
   ----------------    --------------   --------------   --------------  -----------
   u'w'                    -14.653            -0.223             8.360        -0.136
   u'v'                    -13.316             0.485            16.428         0.182
   v'w'                     -7.017             0.130             8.228         0.086


   Friction Velocity (Ustar)  =      0.472 m/s
   Maximum Instantaneous TKE  =     18.250 (m/s)^2
   Maximum Instantaneous CTKE =      8.358 (m/s)^2


Grid Point Variance Summary:

   Y-coord -125.00 -104.17  -83.33  -62.50  -41.67  -20.83    0.00   20.83   41.67   62.50   83.33  104.17  125.00

   Height   Standard deviation at grid points for the u component:
   274.17    1.910   1.852   1.629   1.718   1.730   1.771   1.859   1.888   1.923   1.894   1.818   1.654   1.920
   253.33    1.767   1.817   1.622   1.627   1.581   1.676   1.660   1.771   1.511   1.901   2.020   1.796   2.057
   232.50    1.714   1.657   1.518   1.573   1.613   1.798   1.678   1.555   1.535   1.679   1.764   1.978   2.045
   211.67    1.822   1.888   1.577   1.812   1.786   1.834   1.833   1.495   1.414   1.671   1.829   2.021   2.016
   190.83    2.096   2.045   1.765   1.815   1.766   1.741   1.688   1.632   1.410   1.622   1.877   1.945   1.925
   170.00    2.162   2.017   1.879   1.793   1.714   1.759   1.584   1.662   1.532   1.770   1.957   1.920   1.707
   149.17    2.088   2.096   1.981   1.800   1.708   1.771   1.706   1.604   1.518   1.659   2.023   1.676   1.915
   128.33    2.125   2.295   1.832   1.976   1.867   1.927   1.682   1.601   1.729   1.646   1.805   1.944   1.996
   107.50    2.105   2.181   2.003   1.932   1.899   1.918   1.797   1.806   1.629   1.861   2.089   1.837   1.875
    86.67    2.238   1.981   2.036   1.933   1.869   1.737   1.779   1.692   1.977   1.766   2.020   1.745   1.960
    65.83    2.048   2.064   1.795   1.816   1.831   1.821   1.807   1.892   1.978   1.885   2.057   1.846   1.710
    45.00    2.038   2.027   1.768   1.975   1.854   1.872   1.881   2.002   2.163   1.926   1.951   1.904   2.086
    24.17    1.889   1.852   1.883   1.863   1.966   2.164   1.940   2.062   2.062   1.811   2.048   1.763   1.935

   Height   Standard deviation at grid points for the v component:
   274.17    1.562   1.562   1.562   1.562   1.562   1.562   1.562   1.562   1.562   1.562   1.562   1.562   1.562
   253.33    1.562   1.562   1.562   1.562   1.562   1.562   1.562   1.562   1.562   1.562   1.562   1.562   1.562
   232.50    1.562   1.562   1.562   1.562   1.562   1.562   1.562   1.562   1.562   1.562   1.562   1.562   1.562
   211.67    1.562   1.562   1.562   1.562   1.562   1.562   1.562   1.562   1.562   1.562   1.562   1.562   1.562
   190.83    1.562   1.562   1.562   1.562   1.562   1.562   1.562   1.562   1.562   1.562   1.562   1.562   1.562
   170.00    1.562   1.562   1.562   1.562   1.562   1.562   1.562   1.562   1.562   1.562   1.562   1.562   1.562
   149.17    1.562   1.562   1.562   1.562   1.562   1.562   1.562   1.562   1.562   1.562   1.562   1.562   1.562
   128.33    1.562   1.562   1.562   1.562   1.562   1.562   1.562   1.562   1.562   1.562   1.562   1.562   1.562
   107.50    1.562   1.562   1.562   1.562   1.562   1.562   1.562   1.562   1.562   1.562   1.562   1.562   1.562
    86.67    1.562   1.562   1.562   1.562   1.562   1.562   1.562   1.562   1.562   1.562   1.562   1.562   1.562
    65.83    1.562   1.562   1.562   1.562   1.562   1.562   1.562   1.562   1.562   1.562   1.562   1.562   1.562
    45.00    1.562   1.562   1.562   1.562   1.562   1.562   1.562   1.562   1.562   1.562   1.562   1.562   1.562
    24.17    1.562   1.562   1.562   1.562   1.562   1.562   1.562   1.562   1.562   1.562   1.562   1.562   1.562

   Height   Standard deviation at grid points for the w component:
   274.17    0.960   0.960   0.960   0.960   0.960   0.960   0.960   0.960   0.960   0.960   0.960   0.960   0.960
   253.33    0.960   0.960   0.960   0.960   0.960   0.960   0.960   0.960   0.960   0.960   0.960   0.960   0.960
   232.50    0.960   0.960   0.960   0.960   0.960   0.960   0.960   0.960   0.960   0.960   0.960   0.960   0.960
   211.67    0.960   0.960   0.960   0.960   0.960   0.960   0.960   0.960   0.960   0.960   0.960   0.960   0.960
   190.83    0.960   0.960   0.960   0.960   0.960   0.960   0.960   0.960   0.960   0.960   0.960   0.960   0.960
   170.00    0.960   0.960   0.960   0.960   0.960   0.960   0.960   0.960   0.960   0.960   0.960   0.960   0.960
   149.17    0.960   0.960   0.960   0.960   0.960   0.960   0.960   0.960   0.960   0.960   0.960   0.960   0.960
   128.33    0.960   0.960   0.960   0.960   0.960   0.960   0.960   0.960   0.960   0.960   0.960   0.960   0.960
   107.50    0.960   0.960   0.960   0.960   0.960   0.960   0.960   0.960   0.960   0.960   0.960   0.960   0.960
    86.67    0.960   0.960   0.960   0.960   0.960   0.960   0.960   0.960   0.960   0.960   0.960   0.960   0.960
    65.83    0.960   0.960   0.960   0.960   0.960   0.960   0.960   0.960   0.960   0.960   0.960   0.960   0.960
    45.00    0.960   0.960   0.960   0.960   0.960   0.960   0.960   0.960   0.960   0.960   0.960   0.960   0.960
    24.17    0.960   0.960   0.960   0.960   0.960   0.960   0.960   0.960   0.960   0.960   0.960   0.960   0.960

   Mean standard deviation across all grid points:
      u component:    1.841 m/s
      v component:    1.562 m/s
      w component:    0.960 m/s


U-component (X) statistics from the hub grid point:

   Mean =  12.0000 m/s
   TI   =  14.2191 %


Normalizing Parameters for Binary Data (approximate statistics):

   UBar  =  12.0000 m/s
   TI(u) =  14.2191 %
   TI(v) =  13.0141 %
   TI(w) =   7.9978 %

   Height Offset =   0.0000 m
   Grid Base     =  24.1680 m

Nyquist frequency of turbulent wind field =         2.000 Hz


Processing complete.  0.46875 CPU seconds used.
