
This summary file was generated by TurbSim (v1.06.00, 21-Sep-2012) on 26-Nov-2019 at 14:58:37.


Runtime Options:

   2318573  Random seed #1
    RANLUX  Type of random number generator
         F  Output binary HH turbulence parameters?
         F  Output formatted turbulence parameters?
         F  Output AeroDyn HH files?
         F  Output AeroDyn FF files?
         T  Output BLADED FF files?
         T  Output tower data?
         F  Output formatted FF files?
         F  Output coherent turbulence time step file?
         T  Clockwise rotation when looking downwind?
 0 -  NONE  IEC turbulence models scaled to exact specified standard deviation


Turbine/Model Specifications:

        13  Vertical grid-point matrix dimension
        13  Horizontal grid-point matrix dimension
     0.250  Time step [seconds]
   400.000  Analysis time [seconds]
   200.000  Usable output time [seconds]
   149.168  Hub height [m]
   250.000  Grid height [m]
   250.000  Grid width [m]
     0.000  Vertical flow angle [degrees]
     0.000  Horizontal flow angle [degrees]


Meteorological Boundary Conditions:

    IECKAI  IEC Kaimal spectral model
         1  IEC standard: IEC 61400-1 Ed. 3: 2005
    17.627  Percent turbulence intensity, IEC 61400-1 Ed. 3: 2005
       NTM  IEC Normal Turbulence Model
       N/A  IEC Extreme Turbulence Model (ETM) "c" parameter [m/s]
       IEC  Wind profile type
   149.168  Reference height [m]
    11.000  Reference wind speed [m/s]
       N/A  Jet height [m]
     0.200  Power law exponent
     0.030  Surface roughness length [m]


You have requested that the following file(s) be generated:

   URef_11.wnd (AeroDyn/BLADED full-field wnd file)
   URef_11.twr (Binary tower twr file)


Turbulence Simulation Scaling Parameter Summary:

   Turbulence model used                            =  IEC Kaimal
   Turbulence characteristic                        =  User-specified
   IEC standard                                     =  IEC 61400-1 Ed. 3: 2005
   Mean wind speed at hub height                    =   11.000 m/s
   Characteristic value of standard deviation       =    1.939 m/s
   Turbulence scale                                 =   42.000 m
   u-component integral scale                       =  340.200 m
   Coherency scale                                  =  340.200 m
   Characteristic value of hub turbulence intensity =   17.627%
   Gradient Richardson number                       =    0.000

   Wind profile type                                =  Power law on rotor disk, logarithmic elsewhere
   Power law exponent                               =    0.200
   Mean shear across rotor disk                     =    0.019 (m/s)/m
   Assumed rotor diameter                           =  250.000 m
   Surface roughness length                         =    0.030 m

   Number of time steps in the FFT                  =     1600
   Number of time steps output                      =      891


Mean Flow Angles:

   Vertical   =   0.0 degrees
   Horizontal =   0.0 degrees

Mean Wind Speed Profile:

   Height    Wind Speed   Horizontal Angle  U-comp (X)   V-comp (Y)   W-comp (Z)
     (m)        (m/s)         (degrees)       (m/s)        (m/s)        (m/s)   
   ------    ----------   ----------------  ----------   ----------   ----------
    274.2       12.42            0.00         12.42         0.00         0.00
    253.3       12.23            0.00         12.23         0.00         0.00
    232.5       12.02            0.00         12.02         0.00         0.00
    211.7       11.80            0.00         11.80         0.00         0.00
    190.8       11.56            0.00         11.56         0.00         0.00
    170.0       11.29            0.00         11.29         0.00         0.00
    149.2       11.00            0.00         11.00         0.00         0.00
    128.3       10.67            0.00         10.67         0.00         0.00
    107.5       10.30            0.00         10.30         0.00         0.00
     86.7        9.87            0.00          9.87         0.00         0.00
     65.8        9.34            0.00          9.34         0.00         0.00
     45.0        8.66            0.00          8.66         0.00         0.00
     24.2        7.64            0.00          7.64         0.00         0.00
      3.3        6.09            0.00          6.09         0.00         0.00


Harvested Random Seeds after Generation of the Random Numbers:

      3791000 K1
            0 K2


Hub-Height Simulated Turbulence Statistical Summary:

   Type of Wind        Min (m/s)   Mean (m/s)    Max (m/s)  Sigma (m/s)       TI (%)
   ----------------    ---------   ----------    ---------  -----------       ------
   Longitudinal (u)         6.72        11.00        15.85        1.600       14.541
   Lateral (v)             -4.03         0.00         5.06        1.480       13.456
   Vertical (w)            -2.89         0.00         2.78        0.913        8.299
   U component              6.72        11.00        15.85        1.600       14.541
   V component             -4.03         0.00         5.06        1.480       13.456
   W component             -2.89         0.00         2.78        0.913        8.299
   Horizontal (U&V)         6.72        11.10        15.85        1.593       14.355
   Total                    6.78        11.14        15.92        1.588       14.261

                       Min Reynolds     Mean Reynolds    Max Reynolds    Correlation
   Product             Stress (m/s)^2   Stress (m/s)^2   Stress (m/s)^2  Coefficient
   ----------------    --------------   --------------   --------------  -----------
   u'w'                    -12.936            -0.197             7.301        -0.135
   u'v'                    -11.407             0.454            14.771         0.192
   v'w'                     -6.401             0.120             7.384         0.089


   Friction Velocity (Ustar)  =      0.444 m/s
   Maximum Instantaneous TKE  =     16.026 (m/s)^2
   Maximum Instantaneous CTKE =      7.507 (m/s)^2


Grid Point Variance Summary:

   Y-coord -125.00 -104.17  -83.33  -62.50  -41.67  -20.83    0.00   20.83   41.67   62.50   83.33  104.17  125.00

   Height   Standard deviation at grid points for the u component:
   274.17    1.800   1.748   1.524   1.611   1.631   1.678   1.769   1.788   1.824   1.780   1.706   1.556   1.813
   253.33    1.652   1.707   1.519   1.532   1.488   1.583   1.569   1.667   1.416   1.800   1.913   1.698   1.951
   232.50    1.595   1.543   1.411   1.472   1.515   1.696   1.585   1.460   1.428   1.578   1.660   1.877   1.935
   211.67    1.714   1.774   1.466   1.699   1.685   1.740   1.730   1.396   1.325   1.560   1.715   1.908   1.910
   190.83    1.980   1.925   1.652   1.710   1.664   1.640   1.587   1.528   1.318   1.516   1.761   1.839   1.819
   170.00    2.052   1.905   1.761   1.681   1.610   1.650   1.489   1.565   1.432   1.661   1.852   1.815   1.608
   149.17    1.974   1.982   1.861   1.693   1.595   1.664   1.600   1.505   1.419   1.569   1.917   1.582   1.817
   128.33    2.007   2.173   1.716   1.861   1.756   1.815   1.575   1.490   1.622   1.542   1.701   1.836   1.891
   107.50    1.995   2.076   1.894   1.826   1.791   1.805   1.678   1.687   1.509   1.743   1.971   1.731   1.775
    86.67    2.129   1.882   1.930   1.829   1.766   1.623   1.657   1.576   1.855   1.655   1.911   1.639   1.861
    65.83    1.941   1.956   1.692   1.714   1.732   1.713   1.698   1.783   1.866   1.778   1.949   1.749   1.612
    45.00    1.930   1.922   1.666   1.878   1.756   1.779   1.773   1.899   2.060   1.822   1.852   1.797   1.973
    24.17    1.783   1.746   1.778   1.762   1.876   2.061   1.836   1.962   1.967   1.719   1.941   1.663   1.831

   Height   Standard deviation at grid points for the v component:
   274.17    1.480   1.480   1.480   1.480   1.480   1.480   1.480   1.480   1.480   1.480   1.480   1.480   1.480
   253.33    1.480   1.480   1.480   1.480   1.480   1.480   1.480   1.480   1.480   1.480   1.480   1.480   1.480
   232.50    1.480   1.480   1.480   1.480   1.480   1.480   1.480   1.480   1.480   1.480   1.480   1.480   1.480
   211.67    1.480   1.480   1.480   1.480   1.480   1.480   1.480   1.480   1.480   1.480   1.480   1.480   1.480
   190.83    1.480   1.480   1.480   1.480   1.480   1.480   1.480   1.480   1.480   1.480   1.480   1.480   1.480
   170.00    1.480   1.480   1.480   1.480   1.480   1.480   1.480   1.480   1.480   1.480   1.480   1.480   1.480
   149.17    1.480   1.480   1.480   1.480   1.480   1.480   1.480   1.480   1.480   1.480   1.480   1.480   1.480
   128.33    1.480   1.480   1.480   1.480   1.480   1.480   1.480   1.480   1.480   1.480   1.480   1.480   1.480
   107.50    1.480   1.480   1.480   1.480   1.480   1.480   1.480   1.480   1.480   1.480   1.480   1.480   1.480
    86.67    1.480   1.480   1.480   1.480   1.480   1.480   1.480   1.480   1.480   1.480   1.480   1.480   1.480
    65.83    1.480   1.480   1.480   1.480   1.480   1.480   1.480   1.480   1.480   1.480   1.480   1.480   1.480
    45.00    1.480   1.480   1.480   1.480   1.480   1.480   1.480   1.480   1.480   1.480   1.480   1.480   1.480
    24.17    1.480   1.480   1.480   1.480   1.480   1.480   1.480   1.480   1.480   1.480   1.480   1.480   1.480

   Height   Standard deviation at grid points for the w component:
   274.17    0.913   0.913   0.913   0.913   0.913   0.913   0.913   0.913   0.913   0.913   0.913   0.913   0.913
   253.33    0.913   0.913   0.913   0.913   0.913   0.913   0.913   0.913   0.913   0.913   0.913   0.913   0.913
   232.50    0.913   0.913   0.913   0.913   0.913   0.913   0.913   0.913   0.913   0.913   0.913   0.913   0.913
   211.67    0.913   0.913   0.913   0.913   0.913   0.913   0.913   0.913   0.913   0.913   0.913   0.913   0.913
   190.83    0.913   0.913   0.913   0.913   0.913   0.913   0.913   0.913   0.913   0.913   0.913   0.913   0.913
   170.00    0.913   0.913   0.913   0.913   0.913   0.913   0.913   0.913   0.913   0.913   0.913   0.913   0.913
   149.17    0.913   0.913   0.913   0.913   0.913   0.913   0.913   0.913   0.913   0.913   0.913   0.913   0.913
   128.33    0.913   0.913   0.913   0.913   0.913   0.913   0.913   0.913   0.913   0.913   0.913   0.913   0.913
   107.50    0.913   0.913   0.913   0.913   0.913   0.913   0.913   0.913   0.913   0.913   0.913   0.913   0.913
    86.67    0.913   0.913   0.913   0.913   0.913   0.913   0.913   0.913   0.913   0.913   0.913   0.913   0.913
    65.83    0.913   0.913   0.913   0.913   0.913   0.913   0.913   0.913   0.913   0.913   0.913   0.913   0.913
    45.00    0.913   0.913   0.913   0.913   0.913   0.913   0.913   0.913   0.913   0.913   0.913   0.913   0.913
    24.17    0.913   0.913   0.913   0.913   0.913   0.913   0.913   0.913   0.913   0.913   0.913   0.913   0.913

   Mean standard deviation across all grid points:
      u component:    1.735 m/s
      v component:    1.480 m/s
      w component:    0.913 m/s


U-component (X) statistics from the hub grid point:

   Mean =  11.0000 m/s
   TI   =  14.5411 %


Normalizing Parameters for Binary Data (approximate statistics):

   UBar  =  11.0000 m/s
   TI(u) =  14.5411 %
   TI(v) =  13.4564 %
   TI(w) =   8.2991 %

   Height Offset =   0.0000 m
   Grid Base     =  24.1680 m

Nyquist frequency of turbulent wind field =         2.000 Hz


Processing complete.  0.53125 CPU seconds used.
