
This summary file was generated by TurbSim (v1.06.00, 21-Sep-2012) on 28-Nov-2019 at 15:12:49.


Runtime Options:

   2318573  Random seed #1
    RANLUX  Type of random number generator
         F  Output binary HH turbulence parameters?
         F  Output formatted turbulence parameters?
         F  Output AeroDyn HH files?
         F  Output AeroDyn FF files?
         T  Output BLADED FF files?
         T  Output tower data?
         F  Output formatted FF files?
         F  Output coherent turbulence time step file?
         T  Clockwise rotation when looking downwind?
 0 -  NONE  IEC turbulence models scaled to exact specified standard deviation


Turbine/Model Specifications:

        13  Vertical grid-point matrix dimension
        13  Horizontal grid-point matrix dimension
     0.250  Time step [seconds]
   400.000  Analysis time [seconds]
   200.000  Usable output time [seconds]
   149.168  Hub height [m]
   250.000  Grid height [m]
   250.000  Grid width [m]
     0.000  Vertical flow angle [degrees]
     0.000  Horizontal flow angle [degrees]


Meteorological Boundary Conditions:

    IECKAI  IEC Kaimal spectral model
         1  IEC standard: IEC 61400-1 Ed. 3: 2005
    20.300  Percent turbulence intensity, IEC 61400-1 Ed. 3: 2005
       NTM  IEC Normal Turbulence Model
       N/A  IEC Extreme Turbulence Model (ETM) "c" parameter [m/s]
       IEC  Wind profile type
   149.168  Reference height [m]
     8.000  Reference wind speed [m/s]
       N/A  Jet height [m]
     0.200  Power law exponent
     0.030  Surface roughness length [m]


You have requested that the following file(s) be generated:

   URef_turbulence_08.wnd (AeroDyn/BLADED full-field wnd file)
   URef_turbulence_08.twr (Binary tower twr file)


Turbulence Simulation Scaling Parameter Summary:

   Turbulence model used                            =  IEC Kaimal
   Turbulence characteristic                        =  User-specified
   IEC standard                                     =  IEC 61400-1 Ed. 3: 2005
   Mean wind speed at hub height                    =    8.000 m/s
   Characteristic value of standard deviation       =    1.624 m/s
   Turbulence scale                                 =   42.000 m
   u-component integral scale                       =  340.200 m
   Coherency scale                                  =  340.200 m
   Characteristic value of hub turbulence intensity =   20.300%
   Gradient Richardson number                       =    0.000

   Wind profile type                                =  Power law on rotor disk, logarithmic elsewhere
   Power law exponent                               =    0.200
   Mean shear across rotor disk                     =    0.014 (m/s)/m
   Assumed rotor diameter                           =  250.000 m
   Surface roughness length                         =    0.030 m

   Number of time steps in the FFT                  =     1600
   Number of time steps output                      =      925


Mean Flow Angles:

   Vertical   =   0.0 degrees
   Horizontal =   0.0 degrees

Mean Wind Speed Profile:

   Height    Wind Speed   Horizontal Angle  U-comp (X)   V-comp (Y)   W-comp (Z)
     (m)        (m/s)         (degrees)       (m/s)        (m/s)        (m/s)   
   ------    ----------   ----------------  ----------   ----------   ----------
    274.2        9.04            0.00          9.04         0.00         0.00
    253.3        8.89            0.00          8.89         0.00         0.00
    232.5        8.74            0.00          8.74         0.00         0.00
    211.7        8.58            0.00          8.58         0.00         0.00
    190.8        8.40            0.00          8.40         0.00         0.00
    170.0        8.21            0.00          8.21         0.00         0.00
    149.2        8.00            0.00          8.00         0.00         0.00
    128.3        7.76            0.00          7.76         0.00         0.00
    107.5        7.49            0.00          7.49         0.00         0.00
     86.7        7.18            0.00          7.18         0.00         0.00
     65.8        6.79            0.00          6.79         0.00         0.00
     45.0        6.30            0.00          6.30         0.00         0.00
     24.2        5.56            0.00          5.56         0.00         0.00
      3.3        4.43            0.00          4.43         0.00         0.00


Harvested Random Seeds after Generation of the Random Numbers:

      3791000 K1
            0 K2


Hub-Height Simulated Turbulence Statistical Summary:

   Type of Wind        Min (m/s)   Mean (m/s)    Max (m/s)  Sigma (m/s)       TI (%)
   ----------------    ---------   ----------    ---------  -----------       ------
   Longitudinal (u)         4.61         8.00        11.76        1.273       15.909
   Lateral (v)             -3.26         0.00         4.13        1.233       15.414
   Vertical (w)            -2.44         0.00         2.33        0.771        9.634
   U component              4.61         8.00        11.76        1.273       15.909
   V component             -3.26         0.00         4.13        1.233       15.414
   W component             -2.44         0.00         2.33        0.771        9.634
   Horizontal (U&V)         4.62         8.10        11.76        1.267       15.654
   Total                    4.68         8.13        11.84        1.262       15.522

                       Min Reynolds     Mean Reynolds    Max Reynolds    Correlation
   Product             Stress (m/s)^2   Stress (m/s)^2   Stress (m/s)^2  Coefficient
   ----------------    --------------   --------------   --------------  -----------
   u'w'                     -8.203            -0.132             4.375        -0.135
   u'v'                     -6.492             0.347            10.189         0.221
   v'w'                     -4.656             0.090             5.080         0.095


   Friction Velocity (Ustar)  =      0.363 m/s
   Maximum Instantaneous TKE  =     10.324 (m/s)^2
   Maximum Instantaneous CTKE =      5.158 (m/s)^2


Grid Point Variance Summary:

   Y-coord -125.00 -104.17  -83.33  -62.50  -41.67  -20.83    0.00   20.83   41.67   62.50   83.33  104.17  125.00

   Height   Standard deviation at grid points for the u component:
   274.17    1.482   1.439   1.216   1.297   1.346   1.404   1.503   1.486   1.532   1.440   1.366   1.265   1.478
   253.33    1.315   1.391   1.215   1.243   1.214   1.310   1.299   1.351   1.137   1.504   1.584   1.398   1.618
   232.50    1.239   1.204   1.098   1.186   1.229   1.397   1.321   1.186   1.118   1.277   1.346   1.572   1.594
   211.67    1.383   1.418   1.133   1.363   1.395   1.468   1.439   1.121   1.067   1.221   1.367   1.560   1.586
   190.83    1.624   1.551   1.309   1.395   1.371   1.341   1.283   1.219   1.054   1.193   1.401   1.512   1.496
   170.00    1.708   1.563   1.403   1.344   1.311   1.323   1.207   1.278   1.142   1.328   1.529   1.496   1.301
   149.17    1.627   1.631   1.494   1.370   1.263   1.346   1.273   1.216   1.131   1.299   1.591   1.293   1.509
   128.33    1.644   1.795   1.363   1.513   1.418   1.476   1.255   1.165   1.305   1.228   1.382   1.503   1.569
   107.50    1.654   1.757   1.562   1.501   1.460   1.459   1.317   1.323   1.146   1.387   1.607   1.399   1.469
    86.67    1.793   1.584   1.611   1.507   1.454   1.276   1.286   1.218   1.479   1.318   1.573   1.316   1.556
    65.83    1.615   1.634   1.384   1.401   1.429   1.388   1.361   1.454   1.516   1.452   1.614   1.444   1.308
    45.00    1.602   1.608   1.361   1.580   1.456   1.493   1.437   1.583   1.738   1.505   1.545   1.466   1.616
    24.17    1.459   1.427   1.467   1.458   1.599   1.746   1.522   1.661   1.673   1.431   1.611   1.352   1.503

   Height   Standard deviation at grid points for the v component:
   274.17    1.233   1.233   1.233   1.233   1.233   1.233   1.233   1.233   1.233   1.233   1.233   1.233   1.233
   253.33    1.233   1.233   1.233   1.233   1.233   1.233   1.233   1.233   1.233   1.233   1.233   1.233   1.233
   232.50    1.233   1.233   1.233   1.233   1.233   1.233   1.233   1.233   1.233   1.233   1.233   1.233   1.233
   211.67    1.233   1.233   1.233   1.233   1.233   1.233   1.233   1.233   1.233   1.233   1.233   1.233   1.233
   190.83    1.233   1.233   1.233   1.233   1.233   1.233   1.233   1.233   1.233   1.233   1.233   1.233   1.233
   170.00    1.233   1.233   1.233   1.233   1.233   1.233   1.233   1.233   1.233   1.233   1.233   1.233   1.233
   149.17    1.233   1.233   1.233   1.233   1.233   1.233   1.233   1.233   1.233   1.233   1.233   1.233   1.233
   128.33    1.233   1.233   1.233   1.233   1.233   1.233   1.233   1.233   1.233   1.233   1.233   1.233   1.233
   107.50    1.233   1.233   1.233   1.233   1.233   1.233   1.233   1.233   1.233   1.233   1.233   1.233   1.233
    86.67    1.233   1.233   1.233   1.233   1.233   1.233   1.233   1.233   1.233   1.233   1.233   1.233   1.233
    65.83    1.233   1.233   1.233   1.233   1.233   1.233   1.233   1.233   1.233   1.233   1.233   1.233   1.233
    45.00    1.233   1.233   1.233   1.233   1.233   1.233   1.233   1.233   1.233   1.233   1.233   1.233   1.233
    24.17    1.233   1.233   1.233   1.233   1.233   1.233   1.233   1.233   1.233   1.233   1.233   1.233   1.233

   Height   Standard deviation at grid points for the w component:
   274.17    0.771   0.771   0.771   0.771   0.771   0.771   0.771   0.771   0.771   0.771   0.771   0.771   0.771
   253.33    0.771   0.771   0.771   0.771   0.771   0.771   0.771   0.771   0.771   0.771   0.771   0.771   0.771
   232.50    0.771   0.771   0.771   0.771   0.771   0.771   0.771   0.771   0.771   0.771   0.771   0.771   0.771
   211.67    0.771   0.771   0.771   0.771   0.771   0.771   0.771   0.771   0.771   0.771   0.771   0.771   0.771
   190.83    0.771   0.771   0.771   0.771   0.771   0.771   0.771   0.771   0.771   0.771   0.771   0.771   0.771
   170.00    0.771   0.771   0.771   0.771   0.771   0.771   0.771   0.771   0.771   0.771   0.771   0.771   0.771
   149.17    0.771   0.771   0.771   0.771   0.771   0.771   0.771   0.771   0.771   0.771   0.771   0.771   0.771
   128.33    0.771   0.771   0.771   0.771   0.771   0.771   0.771   0.771   0.771   0.771   0.771   0.771   0.771
   107.50    0.771   0.771   0.771   0.771   0.771   0.771   0.771   0.771   0.771   0.771   0.771   0.771   0.771
    86.67    0.771   0.771   0.771   0.771   0.771   0.771   0.771   0.771   0.771   0.771   0.771   0.771   0.771
    65.83    0.771   0.771   0.771   0.771   0.771   0.771   0.771   0.771   0.771   0.771   0.771   0.771   0.771
    45.00    0.771   0.771   0.771   0.771   0.771   0.771   0.771   0.771   0.771   0.771   0.771   0.771   0.771
    24.17    0.771   0.771   0.771   0.771   0.771   0.771   0.771   0.771   0.771   0.771   0.771   0.771   0.771

   Mean standard deviation across all grid points:
      u component:    1.416 m/s
      v component:    1.233 m/s
      w component:    0.771 m/s


U-component (X) statistics from the hub grid point:

   Mean =   8.0000 m/s
   TI   =  15.9085 %


Normalizing Parameters for Binary Data (approximate statistics):

   UBar  =   8.0000 m/s
   TI(u) =  15.9085 %
   TI(v) =  15.4136 %
   TI(w) =   9.6339 %

   Height Offset =   0.0000 m
   Grid Base     =  24.1680 m

Nyquist frequency of turbulent wind field =         2.000 Hz


Processing complete.  0.4375 CPU seconds used.
