
This summary file was generated by TurbSim (v1.06.00, 21-Sep-2012) on 28-Nov-2019 at 15:12:54.


Runtime Options:

   2318573  Random seed #1
    RANLUX  Type of random number generator
         F  Output binary HH turbulence parameters?
         F  Output formatted turbulence parameters?
         F  Output AeroDyn HH files?
         F  Output AeroDyn FF files?
         T  Output BLADED FF files?
         T  Output tower data?
         F  Output formatted FF files?
         F  Output coherent turbulence time step file?
         T  Clockwise rotation when looking downwind?
 0 -  NONE  IEC turbulence models scaled to exact specified standard deviation


Turbine/Model Specifications:

        13  Vertical grid-point matrix dimension
        13  Horizontal grid-point matrix dimension
     0.250  Time step [seconds]
   400.000  Analysis time [seconds]
   200.000  Usable output time [seconds]
   149.168  Hub height [m]
   250.000  Grid height [m]
   250.000  Grid width [m]
     0.000  Vertical flow angle [degrees]
     0.000  Horizontal flow angle [degrees]


Meteorological Boundary Conditions:

    IECKAI  IEC Kaimal spectral model
         1  IEC standard: IEC 61400-1 Ed. 3: 2005
    14.856  Percent turbulence intensity, IEC 61400-1 Ed. 3: 2005
       NTM  IEC Normal Turbulence Model
       N/A  IEC Extreme Turbulence Model (ETM) "c" parameter [m/s]
       IEC  Wind profile type
   149.168  Reference height [m]
    18.000  Reference wind speed [m/s]
       N/A  Jet height [m]
     0.200  Power law exponent
     0.030  Surface roughness length [m]


You have requested that the following file(s) be generated:

   URef_turbulence_18.wnd (AeroDyn/BLADED full-field wnd file)
   URef_turbulence_18.twr (Binary tower twr file)


Turbulence Simulation Scaling Parameter Summary:

   Turbulence model used                            =  IEC Kaimal
   Turbulence characteristic                        =  User-specified
   IEC standard                                     =  IEC 61400-1 Ed. 3: 2005
   Mean wind speed at hub height                    =   18.000 m/s
   Characteristic value of standard deviation       =    2.674 m/s
   Turbulence scale                                 =   42.000 m
   u-component integral scale                       =  340.200 m
   Coherency scale                                  =  340.200 m
   Characteristic value of hub turbulence intensity =   14.856%
   Gradient Richardson number                       =    0.000

   Wind profile type                                =  Power law on rotor disk, logarithmic elsewhere
   Power law exponent                               =    0.200
   Mean shear across rotor disk                     =    0.031 (m/s)/m
   Assumed rotor diameter                           =  250.000 m
   Surface roughness length                         =    0.030 m

   Number of time steps in the FFT                  =     1600
   Number of time steps output                      =      856


Mean Flow Angles:

   Vertical   =   0.0 degrees
   Horizontal =   0.0 degrees

Mean Wind Speed Profile:

   Height    Wind Speed   Horizontal Angle  U-comp (X)   V-comp (Y)   W-comp (Z)
     (m)        (m/s)         (degrees)       (m/s)        (m/s)        (m/s)   
   ------    ----------   ----------------  ----------   ----------   ----------
    274.2       20.33            0.00         20.33         0.00         0.00
    253.3       20.01            0.00         20.01         0.00         0.00
    232.5       19.67            0.00         19.67         0.00         0.00
    211.7       19.30            0.00         19.30         0.00         0.00
    190.8       18.91            0.00         18.91         0.00         0.00
    170.0       18.48            0.00         18.48         0.00         0.00
    149.2       18.00            0.00         18.00         0.00         0.00
    128.3       17.47            0.00         17.47         0.00         0.00
    107.5       16.86            0.00         16.86         0.00         0.00
     86.7       16.15            0.00         16.15         0.00         0.00
     65.8       15.28            0.00         15.28         0.00         0.00
     45.0       14.16            0.00         14.16         0.00         0.00
     24.2       12.51            0.00         12.51         0.00         0.00
      3.3        9.96            0.00          9.96         0.00         0.00


Harvested Random Seeds after Generation of the Random Numbers:

      3791000 K1
            0 K2


Hub-Height Simulated Turbulence Statistical Summary:

   Type of Wind        Min (m/s)   Mean (m/s)    Max (m/s)  Sigma (m/s)       TI (%)
   ----------------    ---------   ----------    ---------  -----------       ------
   Longitudinal (u)        11.27        18.00        24.94        2.343       13.018
   Lateral (v)             -5.77         0.00         7.20        2.045       11.361
   Vertical (w)            -4.04         0.00         3.76        1.236        6.865
   U component             11.27        18.00        24.94        2.343       13.018
   V component             -5.77         0.00         7.20        2.045       11.361
   W component             -4.04         0.00         3.76        1.236        6.865
   Horizontal (U&V)        11.41        18.12        24.94        2.333       12.879
   Total                   11.58        18.16        25.02        2.328       12.818

                       Min Reynolds     Mean Reynolds    Max Reynolds    Correlation
   Product             Stress (m/s)^2   Stress (m/s)^2   Stress (m/s)^2  Coefficient
   ----------------    --------------   --------------   --------------  -----------
   u'w'                    -26.067            -0.399            15.298        -0.138
   u'v'                    -27.017             0.636            27.839         0.133
   v'w'                    -11.263             0.185            14.038         0.073


   Friction Velocity (Ustar)  =      0.632 m/s
   Maximum Instantaneous TKE  =     34.242 (m/s)^2
   Maximum Instantaneous CTKE =     15.007 (m/s)^2


Grid Point Variance Summary:

   Y-coord -125.00 -104.17  -83.33  -62.50  -41.67  -20.83    0.00   20.83   41.67   62.50   83.33  104.17  125.00

   Height   Standard deviation at grid points for the u component:
   274.17    2.586   2.486   2.270   2.357   2.329   2.344   2.418   2.493   2.518   2.577   2.479   2.248   2.542
   253.33    2.453   2.487   2.241   2.199   2.154   2.258   2.224   2.396   2.094   2.511   2.646   2.390   2.674
   232.50    2.423   2.335   2.180   2.208   2.223   2.434   2.271   2.160   2.183   2.294   2.378   2.582   2.692
   211.67    2.471   2.552   2.243   2.484   2.408   2.425   2.484   2.130   1.960   2.320   2.503   2.686   2.647
   190.83    2.786   2.745   2.437   2.450   2.400   2.361   2.307   2.269   1.996   2.246   2.558   2.577   2.560
   170.00    2.811   2.678   2.586   2.463   2.362   2.410   2.179   2.262   2.156   2.414   2.576   2.544   2.298
   149.17    2.762   2.771   2.686   2.455   2.389   2.420   2.343   2.223   2.148   2.218   2.654   2.245   2.503
   128.33    2.820   3.001   2.516   2.648   2.533   2.591   2.332   2.287   2.382   2.274   2.424   2.579   2.617
   107.50    2.741   2.811   2.646   2.545   2.527   2.594   2.496   2.510   2.342   2.559   2.776   2.451   2.465
    86.67    2.872   2.588   2.673   2.542   2.480   2.413   2.502   2.368   2.686   2.420   2.659   2.375   2.539
    65.83    2.678   2.716   2.410   2.414   2.417   2.464   2.448   2.546   2.630   2.515   2.687   2.416   2.282
    45.00    2.676   2.662   2.377   2.557   2.437   2.424   2.508   2.622   2.763   2.547   2.528   2.526   2.745
    24.17    2.517   2.483   2.512   2.476   2.509   2.783   2.559   2.666   2.635   2.349   2.673   2.348   2.537

   Height   Standard deviation at grid points for the v component:
   274.17    2.045   2.045   2.045   2.045   2.045   2.045   2.045   2.045   2.045   2.045   2.045   2.045   2.045
   253.33    2.045   2.045   2.045   2.045   2.045   2.045   2.045   2.045   2.045   2.045   2.045   2.045   2.045
   232.50    2.045   2.045   2.045   2.045   2.045   2.045   2.045   2.045   2.045   2.045   2.045   2.045   2.045
   211.67    2.045   2.045   2.045   2.045   2.045   2.045   2.045   2.045   2.045   2.045   2.045   2.045   2.045
   190.83    2.045   2.045   2.045   2.045   2.045   2.045   2.045   2.045   2.045   2.045   2.045   2.045   2.045
   170.00    2.045   2.045   2.045   2.045   2.045   2.045   2.045   2.045   2.045   2.045   2.045   2.045   2.045
   149.17    2.045   2.045   2.045   2.045   2.045   2.045   2.045   2.045   2.045   2.045   2.045   2.045   2.045
   128.33    2.045   2.045   2.045   2.045   2.045   2.045   2.045   2.045   2.045   2.045   2.045   2.045   2.045
   107.50    2.045   2.045   2.045   2.045   2.045   2.045   2.045   2.045   2.045   2.045   2.045   2.045   2.045
    86.67    2.045   2.045   2.045   2.045   2.045   2.045   2.045   2.045   2.045   2.045   2.045   2.045   2.045
    65.83    2.045   2.045   2.045   2.045   2.045   2.045   2.045   2.045   2.045   2.045   2.045   2.045   2.045
    45.00    2.045   2.045   2.045   2.045   2.045   2.045   2.045   2.045   2.045   2.045   2.045   2.045   2.045
    24.17    2.045   2.045   2.045   2.045   2.045   2.045   2.045   2.045   2.045   2.045   2.045   2.045   2.045

   Height   Standard deviation at grid points for the w component:
   274.17    1.236   1.236   1.236   1.236   1.236   1.236   1.236   1.236   1.236   1.236   1.236   1.236   1.236
   253.33    1.236   1.236   1.236   1.236   1.236   1.236   1.236   1.236   1.236   1.236   1.236   1.236   1.236
   232.50    1.236   1.236   1.236   1.236   1.236   1.236   1.236   1.236   1.236   1.236   1.236   1.236   1.236
   211.67    1.236   1.236   1.236   1.236   1.236   1.236   1.236   1.236   1.236   1.236   1.236   1.236   1.236
   190.83    1.236   1.236   1.236   1.236   1.236   1.236   1.236   1.236   1.236   1.236   1.236   1.236   1.236
   170.00    1.236   1.236   1.236   1.236   1.236   1.236   1.236   1.236   1.236   1.236   1.236   1.236   1.236
   149.17    1.236   1.236   1.236   1.236   1.236   1.236   1.236   1.236   1.236   1.236   1.236   1.236   1.236
   128.33    1.236   1.236   1.236   1.236   1.236   1.236   1.236   1.236   1.236   1.236   1.236   1.236   1.236
   107.50    1.236   1.236   1.236   1.236   1.236   1.236   1.236   1.236   1.236   1.236   1.236   1.236   1.236
    86.67    1.236   1.236   1.236   1.236   1.236   1.236   1.236   1.236   1.236   1.236   1.236   1.236   1.236
    65.83    1.236   1.236   1.236   1.236   1.236   1.236   1.236   1.236   1.236   1.236   1.236   1.236   1.236
    45.00    1.236   1.236   1.236   1.236   1.236   1.236   1.236   1.236   1.236   1.236   1.236   1.236   1.236
    24.17    1.236   1.236   1.236   1.236   1.236   1.236   1.236   1.236   1.236   1.236   1.236   1.236   1.236

   Mean standard deviation across all grid points:
      u component:    2.473 m/s
      v component:    2.045 m/s
      w component:    1.236 m/s


U-component (X) statistics from the hub grid point:

   Mean =  18.0000 m/s
   TI   =  13.0175 %


Normalizing Parameters for Binary Data (approximate statistics):

   UBar  =  18.0000 m/s
   TI(u) =  13.0175 %
   TI(v) =  11.3614 %
   TI(w) =   6.8651 %

   Height Offset =   0.0000 m
   Grid Base     =  24.1680 m

Nyquist frequency of turbulent wind field =         2.000 Hz


Processing complete.  0.53125 CPU seconds used.
