
This summary file was generated by TurbSim (v1.06.00, 21-Sep-2012) on 28-Nov-2019 at 15:12:57.


Runtime Options:

   2318573  Random seed #1
    RANLUX  Type of random number generator
         F  Output binary HH turbulence parameters?
         F  Output formatted turbulence parameters?
         F  Output AeroDyn HH files?
         F  Output AeroDyn FF files?
         T  Output BLADED FF files?
         T  Output tower data?
         F  Output formatted FF files?
         F  Output coherent turbulence time step file?
         T  Clockwise rotation when looking downwind?
 0 -  NONE  IEC turbulence models scaled to exact specified standard deviation


Turbine/Model Specifications:

        13  Vertical grid-point matrix dimension
        13  Horizontal grid-point matrix dimension
     0.250  Time step [seconds]
   400.000  Analysis time [seconds]
   200.000  Usable output time [seconds]
   149.168  Hub height [m]
   250.000  Grid height [m]
   250.000  Grid width [m]
     0.000  Vertical flow angle [degrees]
     0.000  Horizontal flow angle [degrees]


Meteorological Boundary Conditions:

    IECKAI  IEC Kaimal spectral model
         1  IEC standard: IEC 61400-1 Ed. 3: 2005
    13.767  Percent turbulence intensity, IEC 61400-1 Ed. 3: 2005
       NTM  IEC Normal Turbulence Model
       N/A  IEC Extreme Turbulence Model (ETM) "c" parameter [m/s]
       IEC  Wind profile type
   149.168  Reference height [m]
    24.000  Reference wind speed [m/s]
       N/A  Jet height [m]
     0.200  Power law exponent
     0.030  Surface roughness length [m]


You have requested that the following file(s) be generated:

   URef_turbulence_24.wnd (AeroDyn/BLADED full-field wnd file)
   URef_turbulence_24.twr (Binary tower twr file)


Turbulence Simulation Scaling Parameter Summary:

   Turbulence model used                            =  IEC Kaimal
   Turbulence characteristic                        =  User-specified
   IEC standard                                     =  IEC 61400-1 Ed. 3: 2005
   Mean wind speed at hub height                    =   24.000 m/s
   Characteristic value of standard deviation       =    3.304 m/s
   Turbulence scale                                 =   42.000 m
   u-component integral scale                       =  340.200 m
   Coherency scale                                  =  340.200 m
   Characteristic value of hub turbulence intensity =   13.767%
   Gradient Richardson number                       =    0.000

   Wind profile type                                =  Power law on rotor disk, logarithmic elsewhere
   Power law exponent                               =    0.200
   Mean shear across rotor disk                     =    0.042 (m/s)/m
   Assumed rotor diameter                           =  250.000 m
   Surface roughness length                         =    0.030 m

   Number of time steps in the FFT                  =     1600
   Number of time steps output                      =      842


Mean Flow Angles:

   Vertical   =   0.0 degrees
   Horizontal =   0.0 degrees

Mean Wind Speed Profile:

   Height    Wind Speed   Horizontal Angle  U-comp (X)   V-comp (Y)   W-comp (Z)
     (m)        (m/s)         (degrees)       (m/s)        (m/s)        (m/s)   
   ------    ----------   ----------------  ----------   ----------   ----------
    274.2       27.11            0.00         27.11         0.00         0.00
    253.3       26.68            0.00         26.68         0.00         0.00
    232.5       26.23            0.00         26.23         0.00         0.00
    211.7       25.74            0.00         25.74         0.00         0.00
    190.8       25.21            0.00         25.21         0.00         0.00
    170.0       24.64            0.00         24.64         0.00         0.00
    149.2       24.00            0.00         24.00         0.00         0.00
    128.3       23.29            0.00         23.29         0.00         0.00
    107.5       22.48            0.00         22.48         0.00         0.00
     86.7       21.53            0.00         21.53         0.00         0.00
     65.8       20.38            0.00         20.38         0.00         0.00
     45.0       18.89            0.00         18.89         0.00         0.00
     24.2       16.68            0.00         16.68         0.00         0.00
      3.3       13.28            0.00         13.28         0.00         0.00


Harvested Random Seeds after Generation of the Random Numbers:

      3791000 K1
            0 K2


Hub-Height Simulated Turbulence Statistical Summary:

   Type of Wind        Min (m/s)   Mean (m/s)    Max (m/s)  Sigma (m/s)       TI (%)
   ----------------    ---------   ----------    ---------  -----------       ------
   Longitudinal (u)        15.31        24.00        32.52        2.984       12.433
   Lateral (v)             -7.25         0.00         9.00        2.521       10.505
   Vertical (w)            -5.01         0.00         4.54        1.504        6.266
   U component             15.31        24.00        32.52        2.984       12.433
   V component             -7.25         0.00         9.00        2.521       10.505
   W component             -5.01         0.00         4.54        1.504        6.266
   Horizontal (U&V)        15.43        24.13        32.69        2.971       12.311
   Total                   15.62        24.18        32.69        2.965       12.261

                       Min Reynolds     Mean Reynolds    Max Reynolds    Correlation
   Product             Stress (m/s)^2   Stress (m/s)^2   Stress (m/s)^2  Coefficient
   ----------------    --------------   --------------   --------------  -----------
   u'w'                    -38.976            -0.600            22.903        -0.134
   u'v'                    -43.511             0.754            41.925         0.100
   v'w'                    -17.109             0.235            21.013         0.062


   Friction Velocity (Ustar)  =      0.775 m/s
   Maximum Instantaneous TKE  =     54.062 (m/s)^2
   Maximum Instantaneous CTKE =     23.932 (m/s)^2


Grid Point Variance Summary:

   Y-coord -125.00 -104.17  -83.33  -62.50  -41.67  -20.83    0.00   20.83   41.67   62.50   83.33  104.17  125.00

   Height   Standard deviation at grid points for the u component:
   274.17    3.270   3.126   2.917   2.997   2.939   2.932   3.005   3.103   3.126   3.247   3.133   2.849   3.145
   253.33    3.141   3.169   2.868   2.786   2.756   2.865   2.819   3.035   2.699   3.132   3.259   3.000   3.285
   232.50    3.125   3.012   2.858   2.876   2.869   3.101   2.908   2.799   2.837   2.915   2.987   3.193   3.335
   211.67    3.122   3.202   2.917   3.157   3.052   3.051   3.164   2.802   2.535   2.961   3.172   3.349   3.284
   190.83    3.466   3.429   3.114   3.099   3.061   3.005   2.946   2.924   2.618   2.865   3.230   3.211   3.200
   170.00    3.451   3.333   3.292   3.141   3.032   3.069   2.811   2.896   2.810   3.059   3.197   3.168   2.898
   149.17    3.424   3.429   3.372   3.117   3.073   3.082   2.984   2.871   2.802   2.809   3.281   2.828   3.096
   128.33    3.494   3.678   3.175   3.298   3.193   3.251   2.998   2.981   3.042   2.905   3.032   3.197   3.230
   107.50    3.351   3.440   3.281   3.145   3.143   3.269   3.186   3.199   3.039   3.245   3.443   3.046   3.045
    86.67    3.490   3.205   3.310   3.137   3.088   3.075   3.211   3.028   3.368   3.067   3.284   2.997   3.109
    65.83    3.303   3.372   3.022   3.003   2.997   3.094   3.072   3.197   3.268   3.143   3.303   2.977   2.843
    45.00    3.304   3.297   2.986   3.139   3.016   2.979   3.120   3.245   3.362   3.166   3.094   3.135   3.382
    24.17    3.136   3.109   3.144   3.093   3.061   3.398   3.174   3.283   3.219   2.887   3.287   2.920   3.123

   Height   Standard deviation at grid points for the v component:
   274.17    2.521   2.521   2.521   2.521   2.521   2.521   2.521   2.521   2.521   2.521   2.521   2.521   2.521
   253.33    2.521   2.521   2.521   2.521   2.521   2.521   2.521   2.521   2.521   2.521   2.521   2.521   2.521
   232.50    2.521   2.521   2.521   2.521   2.521   2.521   2.521   2.521   2.521   2.521   2.521   2.521   2.521
   211.67    2.521   2.521   2.521   2.521   2.521   2.521   2.521   2.521   2.521   2.521   2.521   2.521   2.521
   190.83    2.521   2.521   2.521   2.521   2.521   2.521   2.521   2.521   2.521   2.521   2.521   2.521   2.521
   170.00    2.521   2.521   2.521   2.521   2.521   2.521   2.521   2.521   2.521   2.521   2.521   2.521   2.521
   149.17    2.521   2.521   2.521   2.521   2.521   2.521   2.521   2.521   2.521   2.521   2.521   2.521   2.521
   128.33    2.521   2.521   2.521   2.521   2.521   2.521   2.521   2.521   2.521   2.521   2.521   2.521   2.521
   107.50    2.521   2.521   2.521   2.521   2.521   2.521   2.521   2.521   2.521   2.521   2.521   2.521   2.521
    86.67    2.521   2.521   2.521   2.521   2.521   2.521   2.521   2.521   2.521   2.521   2.521   2.521   2.521
    65.83    2.521   2.521   2.521   2.521   2.521   2.521   2.521   2.521   2.521   2.521   2.521   2.521   2.521
    45.00    2.521   2.521   2.521   2.521   2.521   2.521   2.521   2.521   2.521   2.521   2.521   2.521   2.521
    24.17    2.521   2.521   2.521   2.521   2.521   2.521   2.521   2.521   2.521   2.521   2.521   2.521   2.521

   Height   Standard deviation at grid points for the w component:
   274.17    1.504   1.504   1.504   1.504   1.504   1.504   1.504   1.504   1.504   1.504   1.504   1.504   1.504
   253.33    1.504   1.504   1.504   1.504   1.504   1.504   1.504   1.504   1.504   1.504   1.504   1.504   1.504
   232.50    1.504   1.504   1.504   1.504   1.504   1.504   1.504   1.504   1.504   1.504   1.504   1.504   1.504
   211.67    1.504   1.504   1.504   1.504   1.504   1.504   1.504   1.504   1.504   1.504   1.504   1.504   1.504
   190.83    1.504   1.504   1.504   1.504   1.504   1.504   1.504   1.504   1.504   1.504   1.504   1.504   1.504
   170.00    1.504   1.504   1.504   1.504   1.504   1.504   1.504   1.504   1.504   1.504   1.504   1.504   1.504
   149.17    1.504   1.504   1.504   1.504   1.504   1.504   1.504   1.504   1.504   1.504   1.504   1.504   1.504
   128.33    1.504   1.504   1.504   1.504   1.504   1.504   1.504   1.504   1.504   1.504   1.504   1.504   1.504
   107.50    1.504   1.504   1.504   1.504   1.504   1.504   1.504   1.504   1.504   1.504   1.504   1.504   1.504
    86.67    1.504   1.504   1.504   1.504   1.504   1.504   1.504   1.504   1.504   1.504   1.504   1.504   1.504
    65.83    1.504   1.504   1.504   1.504   1.504   1.504   1.504   1.504   1.504   1.504   1.504   1.504   1.504
    45.00    1.504   1.504   1.504   1.504   1.504   1.504   1.504   1.504   1.504   1.504   1.504   1.504   1.504
    24.17    1.504   1.504   1.504   1.504   1.504   1.504   1.504   1.504   1.504   1.504   1.504   1.504   1.504

   Mean standard deviation across all grid points:
      u component:    3.107 m/s
      v component:    2.521 m/s
      w component:    1.504 m/s


U-component (X) statistics from the hub grid point:

   Mean =  24.0000 m/s
   TI   =  12.4331 %


Normalizing Parameters for Binary Data (approximate statistics):

   UBar  =  24.0000 m/s
   TI(u) =  12.4331 %
   TI(v) =  10.5054 %
   TI(w) =   6.2664 %

   Height Offset =   0.0000 m
   Grid Base     =  24.1680 m

Nyquist frequency of turbulent wind field =         2.000 Hz


Processing complete.  0.54688 CPU seconds used.
