
This summary file was generated by TurbSim (v1.06.00, 21-Sep-2012) on 26-Nov-2019 at 14:58:38.


Runtime Options:

   2318573  Random seed #1
    RANLUX  Type of random number generator
         F  Output binary HH turbulence parameters?
         F  Output formatted turbulence parameters?
         F  Output AeroDyn HH files?
         F  Output AeroDyn FF files?
         T  Output BLADED FF files?
         T  Output tower data?
         F  Output formatted FF files?
         F  Output coherent turbulence time step file?
         T  Clockwise rotation when looking downwind?
 0 -  NONE  IEC turbulence models scaled to exact specified standard deviation


Turbine/Model Specifications:

        13  Vertical grid-point matrix dimension
        13  Horizontal grid-point matrix dimension
     0.250  Time step [seconds]
   400.000  Analysis time [seconds]
   200.000  Usable output time [seconds]
   149.168  Hub height [m]
   250.000  Grid height [m]
   250.000  Grid width [m]
     0.000  Vertical flow angle [degrees]
     0.000  Horizontal flow angle [degrees]


Meteorological Boundary Conditions:

    IECKAI  IEC Kaimal spectral model
         1  IEC standard: IEC 61400-1 Ed. 3: 2005
    16.531  Percent turbulence intensity, IEC 61400-1 Ed. 3: 2005
       NTM  IEC Normal Turbulence Model
       N/A  IEC Extreme Turbulence Model (ETM) "c" parameter [m/s]
       IEC  Wind profile type
   149.168  Reference height [m]
    13.000  Reference wind speed [m/s]
       N/A  Jet height [m]
     0.200  Power law exponent
     0.030  Surface roughness length [m]


You have requested that the following file(s) be generated:

   URef_13.wnd (AeroDyn/BLADED full-field wnd file)
   URef_13.twr (Binary tower twr file)


Turbulence Simulation Scaling Parameter Summary:

   Turbulence model used                            =  IEC Kaimal
   Turbulence characteristic                        =  User-specified
   IEC standard                                     =  IEC 61400-1 Ed. 3: 2005
   Mean wind speed at hub height                    =   13.000 m/s
   Characteristic value of standard deviation       =    2.149 m/s
   Turbulence scale                                 =   42.000 m
   u-component integral scale                       =  340.200 m
   Coherency scale                                  =  340.200 m
   Characteristic value of hub turbulence intensity =   16.531%
   Gradient Richardson number                       =    0.000

   Wind profile type                                =  Power law on rotor disk, logarithmic elsewhere
   Power law exponent                               =    0.200
   Mean shear across rotor disk                     =    0.023 (m/s)/m
   Assumed rotor diameter                           =  250.000 m
   Surface roughness length                         =    0.030 m

   Number of time steps in the FFT                  =     1600
   Number of time steps output                      =      877


Mean Flow Angles:

   Vertical   =   0.0 degrees
   Horizontal =   0.0 degrees

Mean Wind Speed Profile:

   Height    Wind Speed   Horizontal Angle  U-comp (X)   V-comp (Y)   W-comp (Z)
     (m)        (m/s)         (degrees)       (m/s)        (m/s)        (m/s)   
   ------    ----------   ----------------  ----------   ----------   ----------
    274.2       14.68            0.00         14.68         0.00         0.00
    253.3       14.45            0.00         14.45         0.00         0.00
    232.5       14.21            0.00         14.21         0.00         0.00
    211.7       13.94            0.00         13.94         0.00         0.00
    190.8       13.66            0.00         13.66         0.00         0.00
    170.0       13.34            0.00         13.34         0.00         0.00
    149.2       13.00            0.00         13.00         0.00         0.00
    128.3       12.61            0.00         12.61         0.00         0.00
    107.5       12.18            0.00         12.18         0.00         0.00
     86.7       11.66            0.00         11.66         0.00         0.00
     65.8       11.04            0.00         11.04         0.00         0.00
     45.0       10.23            0.00         10.23         0.00         0.00
     24.2        9.03            0.00          9.03         0.00         0.00
      3.3        7.20            0.00          7.20         0.00         0.00


Harvested Random Seeds after Generation of the Random Numbers:

      3791000 K1
            0 K2


Hub-Height Simulated Turbulence Statistical Summary:

   Type of Wind        Min (m/s)   Mean (m/s)    Max (m/s)  Sigma (m/s)       TI (%)
   ----------------    ---------   ----------    ---------  -----------       ------
   Longitudinal (u)         8.09        13.00        18.50        1.813       13.944
   Lateral (v)             -4.53         0.00         5.68        1.643       12.638
   Vertical (w)            -3.21         0.00         3.07        1.006        7.741
   U component              8.09        13.00        18.50        1.813       13.944
   V component             -4.53         0.00         5.68        1.643       12.638
   W component             -3.21         0.00         3.07        1.006        7.741
   Horizontal (U&V)         8.13        13.10        18.50        1.806       13.778
   Total                    8.19        13.14        18.57        1.800       13.698

                       Min Reynolds     Mean Reynolds    Max Reynolds    Correlation
   Product             Stress (m/s)^2   Stress (m/s)^2   Stress (m/s)^2  Coefficient
   ----------------    --------------   --------------   --------------  -----------
   u'w'                    -16.430            -0.249             9.453        -0.137
   u'v'                    -15.347             0.514            18.154         0.173
   v'w'                     -7.650             0.139             9.109         0.084


   Friction Velocity (Ustar)  =      0.499 m/s
   Maximum Instantaneous TKE  =     20.610 (m/s)^2
   Maximum Instantaneous CTKE =      9.245 (m/s)^2


Grid Point Variance Summary:

   Y-coord -125.00 -104.17  -83.33  -62.50  -41.67  -20.83    0.00   20.83   41.67   62.50   83.33  104.17  125.00

   Height   Standard deviation at grid points for the u component:
   274.17    2.022   1.957   1.735   1.824   1.829   1.866   1.950   1.989   2.021   2.009   1.929   1.753   2.027
   253.33    1.881   1.927   1.725   1.722   1.674   1.771   1.752   1.875   1.607   2.002   2.126   1.895   2.161
   232.50    1.833   1.771   1.627   1.675   1.711   1.901   1.773   1.653   1.642   1.781   1.867   2.079   2.155
   211.67    1.931   2.001   1.688   1.924   1.888   1.929   1.938   1.596   1.503   1.781   1.943   2.133   2.121
   190.83    2.212   2.164   1.877   1.920   1.869   1.842   1.790   1.737   1.504   1.727   1.992   2.051   2.031
   170.00    2.272   2.128   1.997   1.904   1.819   1.867   1.681   1.759   1.633   1.878   2.061   2.024   1.806
   149.17    2.201   2.210   2.100   1.909   1.820   1.878   1.813   1.704   1.620   1.750   2.129   1.771   2.014
   128.33    2.243   2.415   1.948   2.090   1.979   2.038   1.789   1.714   1.836   1.751   1.909   2.051   2.100
   107.50    2.214   2.286   2.111   2.036   2.005   2.031   1.915   1.925   1.749   1.978   2.205   1.941   1.974
    86.67    2.346   2.082   2.142   2.037   1.971   1.850   1.900   1.806   2.098   1.876   2.128   1.851   2.057
    65.83    2.154   2.172   1.897   1.917   1.929   1.929   1.915   2.001   2.089   1.990   2.164   1.943   1.807
    45.00    2.146   2.133   1.870   2.073   1.952   1.964   1.987   2.106   2.264   2.030   2.049   2.009   2.199
    24.17    1.995   1.957   1.987   1.965   2.056   2.268   2.043   2.161   2.157   1.902   2.154   1.862   2.037

   Height   Standard deviation at grid points for the v component:
   274.17    1.643   1.643   1.643   1.643   1.643   1.643   1.643   1.643   1.643   1.643   1.643   1.643   1.643
   253.33    1.643   1.643   1.643   1.643   1.643   1.643   1.643   1.643   1.643   1.643   1.643   1.643   1.643
   232.50    1.643   1.643   1.643   1.643   1.643   1.643   1.643   1.643   1.643   1.643   1.643   1.643   1.643
   211.67    1.643   1.643   1.643   1.643   1.643   1.643   1.643   1.643   1.643   1.643   1.643   1.643   1.643
   190.83    1.643   1.643   1.643   1.643   1.643   1.643   1.643   1.643   1.643   1.643   1.643   1.643   1.643
   170.00    1.643   1.643   1.643   1.643   1.643   1.643   1.643   1.643   1.643   1.643   1.643   1.643   1.643
   149.17    1.643   1.643   1.643   1.643   1.643   1.643   1.643   1.643   1.643   1.643   1.643   1.643   1.643
   128.33    1.643   1.643   1.643   1.643   1.643   1.643   1.643   1.643   1.643   1.643   1.643   1.643   1.643
   107.50    1.643   1.643   1.643   1.643   1.643   1.643   1.643   1.643   1.643   1.643   1.643   1.643   1.643
    86.67    1.643   1.643   1.643   1.643   1.643   1.643   1.643   1.643   1.643   1.643   1.643   1.643   1.643
    65.83    1.643   1.643   1.643   1.643   1.643   1.643   1.643   1.643   1.643   1.643   1.643   1.643   1.643
    45.00    1.643   1.643   1.643   1.643   1.643   1.643   1.643   1.643   1.643   1.643   1.643   1.643   1.643
    24.17    1.643   1.643   1.643   1.643   1.643   1.643   1.643   1.643   1.643   1.643   1.643   1.643   1.643

   Height   Standard deviation at grid points for the w component:
   274.17    1.006   1.006   1.006   1.006   1.006   1.006   1.006   1.006   1.006   1.006   1.006   1.006   1.006
   253.33    1.006   1.006   1.006   1.006   1.006   1.006   1.006   1.006   1.006   1.006   1.006   1.006   1.006
   232.50    1.006   1.006   1.006   1.006   1.006   1.006   1.006   1.006   1.006   1.006   1.006   1.006   1.006
   211.67    1.006   1.006   1.006   1.006   1.006   1.006   1.006   1.006   1.006   1.006   1.006   1.006   1.006
   190.83    1.006   1.006   1.006   1.006   1.006   1.006   1.006   1.006   1.006   1.006   1.006   1.006   1.006
   170.00    1.006   1.006   1.006   1.006   1.006   1.006   1.006   1.006   1.006   1.006   1.006   1.006   1.006
   149.17    1.006   1.006   1.006   1.006   1.006   1.006   1.006   1.006   1.006   1.006   1.006   1.006   1.006
   128.33    1.006   1.006   1.006   1.006   1.006   1.006   1.006   1.006   1.006   1.006   1.006   1.006   1.006
   107.50    1.006   1.006   1.006   1.006   1.006   1.006   1.006   1.006   1.006   1.006   1.006   1.006   1.006
    86.67    1.006   1.006   1.006   1.006   1.006   1.006   1.006   1.006   1.006   1.006   1.006   1.006   1.006
    65.83    1.006   1.006   1.006   1.006   1.006   1.006   1.006   1.006   1.006   1.006   1.006   1.006   1.006
    45.00    1.006   1.006   1.006   1.006   1.006   1.006   1.006   1.006   1.006   1.006   1.006   1.006   1.006
    24.17    1.006   1.006   1.006   1.006   1.006   1.006   1.006   1.006   1.006   1.006   1.006   1.006   1.006

   Mean standard deviation across all grid points:
      u component:    1.946 m/s
      v component:    1.643 m/s
      w component:    1.006 m/s


U-component (X) statistics from the hub grid point:

   Mean =  13.0000 m/s
   TI   =  13.9435 %


Normalizing Parameters for Binary Data (approximate statistics):

   UBar  =  13.0000 m/s
   TI(u) =  13.9435 %
   TI(v) =  12.6379 %
   TI(w) =   7.7411 %

   Height Offset =   0.0000 m
   Grid Base     =  24.1680 m

Nyquist frequency of turbulent wind field =         2.000 Hz


Processing complete.  0.5625 CPU seconds used.
