
This summary file was generated by TurbSim (v1.06.00, 21-Sep-2012) on 28-Nov-2019 at 15:12:52.


Runtime Options:

   2318573  Random seed #1
    RANLUX  Type of random number generator
         F  Output binary HH turbulence parameters?
         F  Output formatted turbulence parameters?
         F  Output AeroDyn HH files?
         F  Output AeroDyn FF files?
         T  Output BLADED FF files?
         T  Output tower data?
         F  Output formatted FF files?
         F  Output coherent turbulence time step file?
         T  Clockwise rotation when looking downwind?
 0 -  NONE  IEC turbulence models scaled to exact specified standard deviation


Turbine/Model Specifications:

        13  Vertical grid-point matrix dimension
        13  Horizontal grid-point matrix dimension
     0.250  Time step [seconds]
   400.000  Analysis time [seconds]
   200.000  Usable output time [seconds]
   149.168  Hub height [m]
   250.000  Grid height [m]
   250.000  Grid width [m]
     0.000  Vertical flow angle [degrees]
     0.000  Horizontal flow angle [degrees]


Meteorological Boundary Conditions:

    IECKAI  IEC Kaimal spectral model
         1  IEC standard: IEC 61400-1 Ed. 3: 2005
    16.100  Percent turbulence intensity, IEC 61400-1 Ed. 3: 2005
       NTM  IEC Normal Turbulence Model
       N/A  IEC Extreme Turbulence Model (ETM) "c" parameter [m/s]
       IEC  Wind profile type
   149.168  Reference height [m]
    14.000  Reference wind speed [m/s]
       N/A  Jet height [m]
     0.200  Power law exponent
     0.030  Surface roughness length [m]


You have requested that the following file(s) be generated:

   URef_turbulence_14.wnd (AeroDyn/BLADED full-field wnd file)
   URef_turbulence_14.twr (Binary tower twr file)


Turbulence Simulation Scaling Parameter Summary:

   Turbulence model used                            =  IEC Kaimal
   Turbulence characteristic                        =  User-specified
   IEC standard                                     =  IEC 61400-1 Ed. 3: 2005
   Mean wind speed at hub height                    =   14.000 m/s
   Characteristic value of standard deviation       =    2.254 m/s
   Turbulence scale                                 =   42.000 m
   u-component integral scale                       =  340.200 m
   Coherency scale                                  =  340.200 m
   Characteristic value of hub turbulence intensity =   16.100%
   Gradient Richardson number                       =    0.000

   Wind profile type                                =  Power law on rotor disk, logarithmic elsewhere
   Power law exponent                               =    0.200
   Mean shear across rotor disk                     =    0.024 (m/s)/m
   Assumed rotor diameter                           =  250.000 m
   Surface roughness length                         =    0.030 m

   Number of time steps in the FFT                  =     1600
   Number of time steps output                      =      872


Mean Flow Angles:

   Vertical   =   0.0 degrees
   Horizontal =   0.0 degrees

Mean Wind Speed Profile:

   Height    Wind Speed   Horizontal Angle  U-comp (X)   V-comp (Y)   W-comp (Z)
     (m)        (m/s)         (degrees)       (m/s)        (m/s)        (m/s)   
   ------    ----------   ----------------  ----------   ----------   ----------
    274.2       15.81            0.00         15.81         0.00         0.00
    253.3       15.56            0.00         15.56         0.00         0.00
    232.5       15.30            0.00         15.30         0.00         0.00
    211.7       15.01            0.00         15.01         0.00         0.00
    190.8       14.71            0.00         14.71         0.00         0.00
    170.0       14.37            0.00         14.37         0.00         0.00
    149.2       14.00            0.00         14.00         0.00         0.00
    128.3       13.59            0.00         13.59         0.00         0.00
    107.5       13.11            0.00         13.11         0.00         0.00
     86.7       12.56            0.00         12.56         0.00         0.00
     65.8       11.89            0.00         11.89         0.00         0.00
     45.0       11.02            0.00         11.02         0.00         0.00
     24.2        9.73            0.00          9.73         0.00         0.00
      3.3        7.75            0.00          7.75         0.00         0.00


Harvested Random Seeds after Generation of the Random Numbers:

      3791000 K1
            0 K2


Hub-Height Simulated Turbulence Statistical Summary:

   Type of Wind        Min (m/s)   Mean (m/s)    Max (m/s)  Sigma (m/s)       TI (%)
   ----------------    ---------   ----------    ---------  -----------       ------
   Longitudinal (u)         8.72        14.00        19.81        1.919       13.705
   Lateral (v)             -4.78         0.00         5.98        1.724       12.313
   Vertical (w)            -3.38         0.00         3.21        1.053        7.519
   U component              8.72        14.00        19.81        1.919       13.705
   V component             -4.78         0.00         5.98        1.724       12.313
   W component             -3.38         0.00         3.21        1.053        7.519
   Horizontal (U&V)         8.84        14.11        19.81        1.911       13.547
   Total                    8.90        14.15        19.88        1.906       13.472

                       Min Reynolds     Mean Reynolds    Max Reynolds    Correlation
   Product             Stress (m/s)^2   Stress (m/s)^2   Stress (m/s)^2  Coefficient
   ----------------    --------------   --------------   --------------  -----------
   u'w'                    -18.260            -0.277            10.574        -0.137
   u'v'                    -17.488             0.541            19.947         0.164
   v'w'                     -8.299             0.148            10.025         0.082


   Friction Velocity (Ustar)  =      0.526 m/s
   Maximum Instantaneous TKE  =     23.097 (m/s)^2
   Maximum Instantaneous CTKE =     10.167 (m/s)^2


Grid Point Variance Summary:

   Y-coord -125.00 -104.17  -83.33  -62.50  -41.67  -20.83    0.00   20.83   41.67   62.50   83.33  104.17  125.00

   Height   Standard deviation at grid points for the u component:
   274.17    2.134   2.063   1.842   1.931   1.928   1.960   2.041   2.090   2.120   2.123   2.040   1.851   2.131
   253.33    1.995   2.038   1.828   1.817   1.768   1.867   1.845   1.979   1.703   2.103   2.231   1.993   2.265
   232.50    1.951   1.884   1.737   1.779   1.811   2.006   1.869   1.752   1.749   1.883   1.970   2.179   2.263
   211.67    2.039   2.112   1.799   2.036   1.990   2.026   2.045   1.700   1.593   1.889   2.056   2.244   2.226
   190.83    2.328   2.281   1.989   2.025   1.973   1.944   1.892   1.842   1.600   1.831   2.106   2.156   2.136
   170.00    2.381   2.239   2.115   2.015   1.925   1.975   1.778   1.858   1.735   1.985   2.164   2.129   1.904
   149.17    2.314   2.324   2.219   2.017   1.934   1.986   1.919   1.805   1.723   1.841   2.234   1.865   2.111
   128.33    2.360   2.535   2.063   2.203   2.090   2.149   1.896   1.827   1.944   1.855   2.013   2.158   2.204
   107.50    2.321   2.391   2.219   2.139   2.111   2.144   2.032   2.043   1.868   2.095   2.321   2.045   2.073
    86.67    2.452   2.182   2.248   2.139   2.073   1.963   2.021   1.920   2.217   1.985   2.235   1.956   2.154
    65.83    2.259   2.281   2.000   2.017   2.027   2.037   2.023   2.110   2.198   2.095   2.270   2.038   1.903
    45.00    2.252   2.238   1.971   2.170   2.049   2.056   2.093   2.209   2.365   2.134   2.145   2.114   2.310
    24.17    2.100   2.063   2.092   2.067   2.147   2.371   2.146   2.262   2.252   1.992   2.259   1.961   2.139

   Height   Standard deviation at grid points for the v component:
   274.17    1.724   1.724   1.724   1.724   1.724   1.724   1.724   1.724   1.724   1.724   1.724   1.724   1.724
   253.33    1.724   1.724   1.724   1.724   1.724   1.724   1.724   1.724   1.724   1.724   1.724   1.724   1.724
   232.50    1.724   1.724   1.724   1.724   1.724   1.724   1.724   1.724   1.724   1.724   1.724   1.724   1.724
   211.67    1.724   1.724   1.724   1.724   1.724   1.724   1.724   1.724   1.724   1.724   1.724   1.724   1.724
   190.83    1.724   1.724   1.724   1.724   1.724   1.724   1.724   1.724   1.724   1.724   1.724   1.724   1.724
   170.00    1.724   1.724   1.724   1.724   1.724   1.724   1.724   1.724   1.724   1.724   1.724   1.724   1.724
   149.17    1.724   1.724   1.724   1.724   1.724   1.724   1.724   1.724   1.724   1.724   1.724   1.724   1.724
   128.33    1.724   1.724   1.724   1.724   1.724   1.724   1.724   1.724   1.724   1.724   1.724   1.724   1.724
   107.50    1.724   1.724   1.724   1.724   1.724   1.724   1.724   1.724   1.724   1.724   1.724   1.724   1.724
    86.67    1.724   1.724   1.724   1.724   1.724   1.724   1.724   1.724   1.724   1.724   1.724   1.724   1.724
    65.83    1.724   1.724   1.724   1.724   1.724   1.724   1.724   1.724   1.724   1.724   1.724   1.724   1.724
    45.00    1.724   1.724   1.724   1.724   1.724   1.724   1.724   1.724   1.724   1.724   1.724   1.724   1.724
    24.17    1.724   1.724   1.724   1.724   1.724   1.724   1.724   1.724   1.724   1.724   1.724   1.724   1.724

   Height   Standard deviation at grid points for the w component:
   274.17    1.053   1.053   1.053   1.053   1.053   1.053   1.053   1.053   1.053   1.053   1.053   1.053   1.053
   253.33    1.053   1.053   1.053   1.053   1.053   1.053   1.053   1.053   1.053   1.053   1.053   1.053   1.053
   232.50    1.053   1.053   1.053   1.053   1.053   1.053   1.053   1.053   1.053   1.053   1.053   1.053   1.053
   211.67    1.053   1.053   1.053   1.053   1.053   1.053   1.053   1.053   1.053   1.053   1.053   1.053   1.053
   190.83    1.053   1.053   1.053   1.053   1.053   1.053   1.053   1.053   1.053   1.053   1.053   1.053   1.053
   170.00    1.053   1.053   1.053   1.053   1.053   1.053   1.053   1.053   1.053   1.053   1.053   1.053   1.053
   149.17    1.053   1.053   1.053   1.053   1.053   1.053   1.053   1.053   1.053   1.053   1.053   1.053   1.053
   128.33    1.053   1.053   1.053   1.053   1.053   1.053   1.053   1.053   1.053   1.053   1.053   1.053   1.053
   107.50    1.053   1.053   1.053   1.053   1.053   1.053   1.053   1.053   1.053   1.053   1.053   1.053   1.053
    86.67    1.053   1.053   1.053   1.053   1.053   1.053   1.053   1.053   1.053   1.053   1.053   1.053   1.053
    65.83    1.053   1.053   1.053   1.053   1.053   1.053   1.053   1.053   1.053   1.053   1.053   1.053   1.053
    45.00    1.053   1.053   1.053   1.053   1.053   1.053   1.053   1.053   1.053   1.053   1.053   1.053   1.053
    24.17    1.053   1.053   1.053   1.053   1.053   1.053   1.053   1.053   1.053   1.053   1.053   1.053   1.053

   Mean standard deviation across all grid points:
      u component:    2.052 m/s
      v component:    1.724 m/s
      w component:    1.053 m/s


U-component (X) statistics from the hub grid point:

   Mean =  14.0000 m/s
   TI   =  13.7051 %


Normalizing Parameters for Binary Data (approximate statistics):

   UBar  =  14.0000 m/s
   TI(u) =  13.7051 %
   TI(v) =  12.3128 %
   TI(w) =   7.5190 %

   Height Offset =   0.0000 m
   Grid Base     =  24.1680 m

Nyquist frequency of turbulent wind field =         2.000 Hz


Processing complete.  0.53125 CPU seconds used.
