
This summary file was generated by TurbSim (v1.06.00, 21-Sep-2012) on 28-Nov-2019 at 15:12:47.


Runtime Options:

   2318573  Random seed #1
    RANLUX  Type of random number generator
         F  Output binary HH turbulence parameters?
         F  Output formatted turbulence parameters?
         F  Output AeroDyn HH files?
         F  Output AeroDyn FF files?
         T  Output BLADED FF files?
         T  Output tower data?
         F  Output formatted FF files?
         F  Output coherent turbulence time step file?
         T  Clockwise rotation when looking downwind?
 0 -  NONE  IEC turbulence models scaled to exact specified standard deviation


Turbine/Model Specifications:

        13  Vertical grid-point matrix dimension
        13  Horizontal grid-point matrix dimension
     0.250  Time step [seconds]
   400.000  Analysis time [seconds]
   200.000  Usable output time [seconds]
   149.168  Hub height [m]
   250.000  Grid height [m]
   250.000  Grid width [m]
     0.000  Vertical flow angle [degrees]
     0.000  Horizontal flow angle [degrees]


Meteorological Boundary Conditions:

    IECKAI  IEC Kaimal spectral model
         1  IEC standard: IEC 61400-1 Ed. 3: 2005
    30.100  Percent turbulence intensity, IEC 61400-1 Ed. 3: 2005
       NTM  IEC Normal Turbulence Model
       N/A  IEC Extreme Turbulence Model (ETM) "c" parameter [m/s]
       IEC  Wind profile type
   149.168  Reference height [m]
     4.000  Reference wind speed [m/s]
       N/A  Jet height [m]
     0.200  Power law exponent
     0.030  Surface roughness length [m]


You have requested that the following file(s) be generated:

   URef_turbulence_04.wnd (AeroDyn/BLADED full-field wnd file)
   URef_turbulence_04.twr (Binary tower twr file)


Turbulence Simulation Scaling Parameter Summary:

   Turbulence model used                            =  IEC Kaimal
   Turbulence characteristic                        =  User-specified
   IEC standard                                     =  IEC 61400-1 Ed. 3: 2005
   Mean wind speed at hub height                    =    4.000 m/s
   Characteristic value of standard deviation       =    1.204 m/s
   Turbulence scale                                 =   42.000 m
   u-component integral scale                       =  340.200 m
   Coherency scale                                  =  340.200 m
   Characteristic value of hub turbulence intensity =   30.100%
   Gradient Richardson number                       =    0.000

   Wind profile type                                =  Power law on rotor disk, logarithmic elsewhere
   Power law exponent                               =    0.200
   Mean shear across rotor disk                     =    0.007 (m/s)/m
   Assumed rotor diameter                           =  250.000 m
   Surface roughness length                         =    0.030 m

   Number of time steps in the FFT                  =     1600
   Number of time steps output                      =     1050


Mean Flow Angles:

   Vertical   =   0.0 degrees
   Horizontal =   0.0 degrees

Mean Wind Speed Profile:

   Height    Wind Speed   Horizontal Angle  U-comp (X)   V-comp (Y)   W-comp (Z)
     (m)        (m/s)         (degrees)       (m/s)        (m/s)        (m/s)   
   ------    ----------   ----------------  ----------   ----------   ----------
    274.2        4.52            0.00          4.52         0.00         0.00
    253.3        4.45            0.00          4.45         0.00         0.00
    232.5        4.37            0.00          4.37         0.00         0.00
    211.7        4.29            0.00          4.29         0.00         0.00
    190.8        4.20            0.00          4.20         0.00         0.00
    170.0        4.11            0.00          4.11         0.00         0.00
    149.2        4.00            0.00          4.00         0.00         0.00
    128.3        3.88            0.00          3.88         0.00         0.00
    107.5        3.75            0.00          3.75         0.00         0.00
     86.7        3.59            0.00          3.59         0.00         0.00
     65.8        3.40            0.00          3.40         0.00         0.00
     45.0        3.15            0.00          3.15         0.00         0.00
     24.2        2.78            0.00          2.78         0.00         0.00
      3.3        2.21            0.00          2.21         0.00         0.00


Harvested Random Seeds after Generation of the Random Numbers:

      3791000 K1
            0 K2


Hub-Height Simulated Turbulence Statistical Summary:

   Type of Wind        Min (m/s)   Mean (m/s)    Max (m/s)  Sigma (m/s)       TI (%)
   ----------------    ---------   ----------    ---------  -----------       ------
   Longitudinal (u)         1.69         4.00         6.12        0.798       19.945
   Lateral (v)             -2.24         0.00         2.84        0.890       22.254
   Vertical (w)            -1.79         0.00         1.67        0.576       14.390
   U component              1.69         4.00         6.12        0.798       19.945
   V component             -2.24         0.00         2.84        0.890       22.254
   W component             -1.79         0.00         1.67        0.576       14.390
   Horizontal (U&V)         1.84         4.10         6.15        0.788       19.215
   Total                    1.89         4.14         6.22        0.782       18.893

                       Min Reynolds     Mean Reynolds    Max Reynolds    Correlation
   Product             Stress (m/s)^2   Stress (m/s)^2   Stress (m/s)^2  Coefficient
   ----------------    --------------   --------------   --------------  -----------
   u'w'                     -3.175            -0.063             1.381        -0.138
   u'v'                     -2.277             0.167             4.946         0.235
   v'w'                     -2.581             0.046             2.558         0.090


   Friction Velocity (Ustar)  =      0.252 m/s
   Maximum Instantaneous TKE  =      4.975 (m/s)^2
   Maximum Instantaneous CTKE =      2.488 (m/s)^2


Grid Point Variance Summary:

   Y-coord -125.00 -104.17  -83.33  -62.50  -41.67  -20.83    0.00   20.83   41.67   62.50   83.33  104.17  125.00

   Height   Standard deviation at grid points for the u component:
   274.17    1.133   1.062   0.860   0.919   1.013   1.065   1.147   1.089   1.154   1.029   0.889   0.890   0.982
   253.33    0.927   1.063   0.853   0.836   0.867   0.981   0.927   0.916   0.791   1.138   1.126   0.955   1.097
   232.50    0.805   0.810   0.771   0.886   0.871   0.998   0.986   0.843   0.766   0.897   0.948   1.155   1.083
   211.67    0.914   0.903   0.748   0.944   1.092   1.149   1.120   0.833   0.769   0.754   0.887   1.053   1.119
   190.83    1.119   0.985   0.842   1.005   1.046   0.973   0.885   0.812   0.750   0.748   0.877   1.008   1.013
   170.00    1.181   1.060   0.901   0.877   0.972   0.881   0.817   0.875   0.777   0.843   1.045   1.023   0.838
   149.17    1.125   1.111   0.945   0.918   0.867   0.927   0.798   0.813   0.770   0.881   1.096   0.841   1.017
   128.33    1.112   1.239   0.870   1.015   0.938   1.002   0.827   0.785   0.867   0.784   0.923   1.022   1.070
   107.50    1.149   1.297   1.072   1.007   0.961   0.944   0.830   0.820   0.678   0.892   1.057   0.883   1.004
    86.67    1.290   1.170   1.169   1.027   0.999   0.792   0.798   0.698   0.931   0.838   1.053   0.857   1.085
    65.83    1.138   1.201   0.956   0.938   0.994   0.956   0.866   0.988   0.974   0.960   1.102   0.965   0.842
    45.00    1.136   1.194   0.937   1.146   1.006   1.043   0.916   1.094   1.210   1.030   1.071   0.951   1.073
    24.17    1.002   0.994   1.048   1.041   1.183   1.289   1.050   1.206   1.207   0.959   1.106   0.863   0.992

   Height   Standard deviation at grid points for the v component:
   274.17    0.890   0.890   0.890   0.890   0.890   0.890   0.890   0.890   0.890   0.890   0.890   0.890   0.890
   253.33    0.890   0.890   0.890   0.890   0.890   0.890   0.890   0.890   0.890   0.890   0.890   0.890   0.890
   232.50    0.890   0.890   0.890   0.890   0.890   0.890   0.890   0.890   0.890   0.890   0.890   0.890   0.890
   211.67    0.890   0.890   0.890   0.890   0.890   0.890   0.890   0.890   0.890   0.890   0.890   0.890   0.890
   190.83    0.890   0.890   0.890   0.890   0.890   0.890   0.890   0.890   0.890   0.890   0.890   0.890   0.890
   170.00    0.890   0.890   0.890   0.890   0.890   0.890   0.890   0.890   0.890   0.890   0.890   0.890   0.890
   149.17    0.890   0.890   0.890   0.890   0.890   0.890   0.890   0.890   0.890   0.890   0.890   0.890   0.890
   128.33    0.890   0.890   0.890   0.890   0.890   0.890   0.890   0.890   0.890   0.890   0.890   0.890   0.890
   107.50    0.890   0.890   0.890   0.890   0.890   0.890   0.890   0.890   0.890   0.890   0.890   0.890   0.890
    86.67    0.890   0.890   0.890   0.890   0.890   0.890   0.890   0.890   0.890   0.890   0.890   0.890   0.890
    65.83    0.890   0.890   0.890   0.890   0.890   0.890   0.890   0.890   0.890   0.890   0.890   0.890   0.890
    45.00    0.890   0.890   0.890   0.890   0.890   0.890   0.890   0.890   0.890   0.890   0.890   0.890   0.890
    24.17    0.890   0.890   0.890   0.890   0.890   0.890   0.890   0.890   0.890   0.890   0.890   0.890   0.890

   Height   Standard deviation at grid points for the w component:
   274.17    0.576   0.576   0.576   0.576   0.576   0.576   0.576   0.576   0.576   0.576   0.576   0.576   0.576
   253.33    0.576   0.576   0.576   0.576   0.576   0.576   0.576   0.576   0.576   0.576   0.576   0.576   0.576
   232.50    0.576   0.576   0.576   0.576   0.576   0.576   0.576   0.576   0.576   0.576   0.576   0.576   0.576
   211.67    0.576   0.576   0.576   0.576   0.576   0.576   0.576   0.576   0.576   0.576   0.576   0.576   0.576
   190.83    0.576   0.576   0.576   0.576   0.576   0.576   0.576   0.576   0.576   0.576   0.576   0.576   0.576
   170.00    0.576   0.576   0.576   0.576   0.576   0.576   0.576   0.576   0.576   0.576   0.576   0.576   0.576
   149.17    0.576   0.576   0.576   0.576   0.576   0.576   0.576   0.576   0.576   0.576   0.576   0.576   0.576
   128.33    0.576   0.576   0.576   0.576   0.576   0.576   0.576   0.576   0.576   0.576   0.576   0.576   0.576
   107.50    0.576   0.576   0.576   0.576   0.576   0.576   0.576   0.576   0.576   0.576   0.576   0.576   0.576
    86.67    0.576   0.576   0.576   0.576   0.576   0.576   0.576   0.576   0.576   0.576   0.576   0.576   0.576
    65.83    0.576   0.576   0.576   0.576   0.576   0.576   0.576   0.576   0.576   0.576   0.576   0.576   0.576
    45.00    0.576   0.576   0.576   0.576   0.576   0.576   0.576   0.576   0.576   0.576   0.576   0.576   0.576
    24.17    0.576   0.576   0.576   0.576   0.576   0.576   0.576   0.576   0.576   0.576   0.576   0.576   0.576

   Mean standard deviation across all grid points:
      u component:    0.973 m/s
      v component:    0.890 m/s
      w component:    0.576 m/s


U-component (X) statistics from the hub grid point:

   Mean =   4.0000 m/s
   TI   =  19.9450 %


Normalizing Parameters for Binary Data (approximate statistics):

   UBar  =   4.0000 m/s
   TI(u) =  19.9450 %
   TI(v) =  22.2536 %
   TI(w) =  14.3903 %

   Height Offset =   0.0000 m
   Grid Base     =  24.1680 m

Nyquist frequency of turbulent wind field =         2.000 Hz


Processing complete.  0.42188 CPU seconds used.
