
This summary file was generated by TurbSim (v1.06.00, 21-Sep-2012) on 28-Nov-2019 at 15:12:53.


Runtime Options:

   2318573  Random seed #1
    RANLUX  Type of random number generator
         F  Output binary HH turbulence parameters?
         F  Output formatted turbulence parameters?
         F  Output AeroDyn HH files?
         F  Output AeroDyn FF files?
         T  Output BLADED FF files?
         T  Output tower data?
         F  Output formatted FF files?
         F  Output coherent turbulence time step file?
         T  Clockwise rotation when looking downwind?
 0 -  NONE  IEC turbulence models scaled to exact specified standard deviation


Turbine/Model Specifications:

        13  Vertical grid-point matrix dimension
        13  Horizontal grid-point matrix dimension
     0.250  Time step [seconds]
   400.000  Analysis time [seconds]
   200.000  Usable output time [seconds]
   149.168  Hub height [m]
   250.000  Grid height [m]
   250.000  Grid width [m]
     0.000  Vertical flow angle [degrees]
     0.000  Horizontal flow angle [degrees]


Meteorological Boundary Conditions:

    IECKAI  IEC Kaimal spectral model
         1  IEC standard: IEC 61400-1 Ed. 3: 2005
    15.400  Percent turbulence intensity, IEC 61400-1 Ed. 3: 2005
       NTM  IEC Normal Turbulence Model
       N/A  IEC Extreme Turbulence Model (ETM) "c" parameter [m/s]
       IEC  Wind profile type
   149.168  Reference height [m]
    16.000  Reference wind speed [m/s]
       N/A  Jet height [m]
     0.200  Power law exponent
     0.030  Surface roughness length [m]


You have requested that the following file(s) be generated:

   URef_turbulence_16.wnd (AeroDyn/BLADED full-field wnd file)
   URef_turbulence_16.twr (Binary tower twr file)


Turbulence Simulation Scaling Parameter Summary:

   Turbulence model used                            =  IEC Kaimal
   Turbulence characteristic                        =  User-specified
   IEC standard                                     =  IEC 61400-1 Ed. 3: 2005
   Mean wind speed at hub height                    =   16.000 m/s
   Characteristic value of standard deviation       =    2.464 m/s
   Turbulence scale                                 =   42.000 m
   u-component integral scale                       =  340.200 m
   Coherency scale                                  =  340.200 m
   Characteristic value of hub turbulence intensity =   15.400%
   Gradient Richardson number                       =    0.000

   Wind profile type                                =  Power law on rotor disk, logarithmic elsewhere
   Power law exponent                               =    0.200
   Mean shear across rotor disk                     =    0.028 (m/s)/m
   Assumed rotor diameter                           =  250.000 m
   Surface roughness length                         =    0.030 m

   Number of time steps in the FFT                  =     1600
   Number of time steps output                      =      863


Mean Flow Angles:

   Vertical   =   0.0 degrees
   Horizontal =   0.0 degrees

Mean Wind Speed Profile:

   Height    Wind Speed   Horizontal Angle  U-comp (X)   V-comp (Y)   W-comp (Z)
     (m)        (m/s)         (degrees)       (m/s)        (m/s)        (m/s)   
   ------    ----------   ----------------  ----------   ----------   ----------
    274.2       18.07            0.00         18.07         0.00         0.00
    253.3       17.79            0.00         17.79         0.00         0.00
    232.5       17.49            0.00         17.49         0.00         0.00
    211.7       17.16            0.00         17.16         0.00         0.00
    190.8       16.81            0.00         16.81         0.00         0.00
    170.0       16.42            0.00         16.42         0.00         0.00
    149.2       16.00            0.00         16.00         0.00         0.00
    128.3       15.53            0.00         15.53         0.00         0.00
    107.5       14.99            0.00         14.99         0.00         0.00
     86.7       14.35            0.00         14.35         0.00         0.00
     65.8       13.59            0.00         13.59         0.00         0.00
     45.0       12.59            0.00         12.59         0.00         0.00
     24.2       11.12            0.00         11.12         0.00         0.00
      3.3        8.86            0.00          8.86         0.00         0.00


Harvested Random Seeds after Generation of the Random Numbers:

      3791000 K1
            0 K2


Hub-Height Simulated Turbulence Statistical Summary:

   Type of Wind        Min (m/s)   Mean (m/s)    Max (m/s)  Sigma (m/s)       TI (%)
   ----------------    ---------   ----------    ---------  -----------       ------
   Longitudinal (u)         9.98        16.00        22.39        2.131       13.317
   Lateral (v)             -5.28         0.00         6.59        1.885       11.780
   Vertical (w)            -3.71         0.00         3.49        1.145        7.154
   U component              9.98        16.00        22.39        2.131       13.317
   V component             -5.28         0.00         6.59        1.885       11.780
   W component             -3.71         0.00         3.49        1.145        7.154
   Horizontal (U&V)        10.13        16.11        22.39        2.122       13.170
   Total                   10.28        16.15        22.47        2.117       13.103

                       Min Reynolds     Mean Reynolds    Max Reynolds    Correlation
   Product             Stress (m/s)^2   Stress (m/s)^2   Stress (m/s)^2  Coefficient
   ----------------    --------------   --------------   --------------  -----------
   u'w'                    -22.073            -0.336            12.893        -0.138
   u'v'                    -22.073             0.591            23.747         0.147
   v'w'                     -9.643             0.167            11.964         0.077


   Friction Velocity (Ustar)  =      0.580 m/s
   Maximum Instantaneous TKE  =     28.439 (m/s)^2
   Maximum Instantaneous CTKE =     12.334 (m/s)^2


Grid Point Variance Summary:

   Y-coord -125.00 -104.17  -83.33  -62.50  -41.67  -20.83    0.00   20.83   41.67   62.50   83.33  104.17  125.00

   Height   Standard deviation at grid points for the u component:
   274.17    2.359   2.274   2.055   2.144   2.128   2.151   2.228   2.291   2.318   2.351   2.260   2.049   2.338
   253.33    2.224   2.262   2.034   2.007   1.959   2.061   2.033   2.187   1.897   2.306   2.440   2.191   2.470
   232.50    2.187   2.110   1.957   1.991   2.015   2.218   2.067   1.953   1.965   2.088   2.175   2.381   2.478
   211.67    2.255   2.333   2.020   2.260   2.198   2.223   2.263   1.912   1.775   2.105   2.280   2.465   2.437
   190.83    2.557   2.514   2.213   2.237   2.185   2.151   2.098   2.055   1.795   2.039   2.333   2.367   2.348
   170.00    2.597   2.459   2.350   2.239   2.142   2.192   1.976   2.058   1.943   2.200   2.370   2.336   2.101
   149.17    2.539   2.548   2.453   2.235   2.161   2.202   2.131   2.012   1.934   2.027   2.444   2.054   2.307
   128.33    2.591   2.770   2.291   2.426   2.312   2.370   2.113   2.056   2.162   2.064   2.219   2.369   2.411
   107.50    2.533   2.601   2.433   2.343   2.320   2.369   2.265   2.277   2.106   2.328   2.549   2.249   2.269
    86.67    2.663   2.384   2.460   2.341   2.277   2.189   2.262   2.145   2.453   2.203   2.448   2.166   2.347
    65.83    2.469   2.498   2.205   2.216   2.222   2.251   2.236   2.328   2.415   2.305   2.479   2.228   2.093
    45.00    2.464   2.450   2.174   2.363   2.243   2.240   2.301   2.415   2.564   2.340   2.337   2.321   2.528
    24.17    2.309   2.273   2.302   2.271   2.327   2.577   2.353   2.463   2.443   2.170   2.467   2.155   2.339

   Height   Standard deviation at grid points for the v component:
   274.17    1.885   1.885   1.885   1.885   1.885   1.885   1.885   1.885   1.885   1.885   1.885   1.885   1.885
   253.33    1.885   1.885   1.885   1.885   1.885   1.885   1.885   1.885   1.885   1.885   1.885   1.885   1.885
   232.50    1.885   1.885   1.885   1.885   1.885   1.885   1.885   1.885   1.885   1.885   1.885   1.885   1.885
   211.67    1.885   1.885   1.885   1.885   1.885   1.885   1.885   1.885   1.885   1.885   1.885   1.885   1.885
   190.83    1.885   1.885   1.885   1.885   1.885   1.885   1.885   1.885   1.885   1.885   1.885   1.885   1.885
   170.00    1.885   1.885   1.885   1.885   1.885   1.885   1.885   1.885   1.885   1.885   1.885   1.885   1.885
   149.17    1.885   1.885   1.885   1.885   1.885   1.885   1.885   1.885   1.885   1.885   1.885   1.885   1.885
   128.33    1.885   1.885   1.885   1.885   1.885   1.885   1.885   1.885   1.885   1.885   1.885   1.885   1.885
   107.50    1.885   1.885   1.885   1.885   1.885   1.885   1.885   1.885   1.885   1.885   1.885   1.885   1.885
    86.67    1.885   1.885   1.885   1.885   1.885   1.885   1.885   1.885   1.885   1.885   1.885   1.885   1.885
    65.83    1.885   1.885   1.885   1.885   1.885   1.885   1.885   1.885   1.885   1.885   1.885   1.885   1.885
    45.00    1.885   1.885   1.885   1.885   1.885   1.885   1.885   1.885   1.885   1.885   1.885   1.885   1.885
    24.17    1.885   1.885   1.885   1.885   1.885   1.885   1.885   1.885   1.885   1.885   1.885   1.885   1.885

   Height   Standard deviation at grid points for the w component:
   274.17    1.145   1.145   1.145   1.145   1.145   1.145   1.145   1.145   1.145   1.145   1.145   1.145   1.145
   253.33    1.145   1.145   1.145   1.145   1.145   1.145   1.145   1.145   1.145   1.145   1.145   1.145   1.145
   232.50    1.145   1.145   1.145   1.145   1.145   1.145   1.145   1.145   1.145   1.145   1.145   1.145   1.145
   211.67    1.145   1.145   1.145   1.145   1.145   1.145   1.145   1.145   1.145   1.145   1.145   1.145   1.145
   190.83    1.145   1.145   1.145   1.145   1.145   1.145   1.145   1.145   1.145   1.145   1.145   1.145   1.145
   170.00    1.145   1.145   1.145   1.145   1.145   1.145   1.145   1.145   1.145   1.145   1.145   1.145   1.145
   149.17    1.145   1.145   1.145   1.145   1.145   1.145   1.145   1.145   1.145   1.145   1.145   1.145   1.145
   128.33    1.145   1.145   1.145   1.145   1.145   1.145   1.145   1.145   1.145   1.145   1.145   1.145   1.145
   107.50    1.145   1.145   1.145   1.145   1.145   1.145   1.145   1.145   1.145   1.145   1.145   1.145   1.145
    86.67    1.145   1.145   1.145   1.145   1.145   1.145   1.145   1.145   1.145   1.145   1.145   1.145   1.145
    65.83    1.145   1.145   1.145   1.145   1.145   1.145   1.145   1.145   1.145   1.145   1.145   1.145   1.145
    45.00    1.145   1.145   1.145   1.145   1.145   1.145   1.145   1.145   1.145   1.145   1.145   1.145   1.145
    24.17    1.145   1.145   1.145   1.145   1.145   1.145   1.145   1.145   1.145   1.145   1.145   1.145   1.145

   Mean standard deviation across all grid points:
      u component:    2.262 m/s
      v component:    1.885 m/s
      w component:    1.145 m/s


U-component (X) statistics from the hub grid point:

   Mean =  16.0000 m/s
   TI   =  13.3170 %


Normalizing Parameters for Binary Data (approximate statistics):

   UBar  =  16.0000 m/s
   TI(u) =  13.3170 %
   TI(v) =  11.7801 %
   TI(w) =   7.1538 %

   Height Offset =   0.0000 m
   Grid Base     =  24.1680 m

Nyquist frequency of turbulent wind field =         2.000 Hz


Processing complete.  0.53125 CPU seconds used.
